data/case240_wecc_nk_h5.m
%%%%%%%%%%%%%%%%%%%%%%%%%%%%%%%%%%%%%%%%%%%%%%%%%%%%%%%%%%%%%%%%%%%%%%%%%%%
%%%%                                                                  %%%%%
%%%%      NICTA Energy System Test Case Archive (NESTA) - v0.6.0      %%%%%
%%%%              Optimal Power Flow - Typical Operation              %%%%%
%%%%                       09 - February - 2017                       %%%%%
%%%%                                                                  %%%%%
%%%%%%%%%%%%%%%%%%%%%%%%%%%%%%%%%%%%%%%%%%%%%%%%%%%%%%%%%%%%%%%%%%%%%%%%%%%
function mpc = case240_wecc
mpc.version = '2';
mpc.baseMVA = 100.0;

%% bus data
%	bus_i	type	Pd	Qd	Gs	Bs	area	Vm	Va	baseKV	zone	Vmax	Vmin
mpc.bus = [
	1001	 1	 0.0	 0.0	 0.0	 0.0	 10	    1.02984	    0.00000	 500.0	 1	    1.10000	    0.90000;
	1002	 1	 226.8419	 -37.472	 0.0	 0.0	 10	    1.01400	    0.00000	 345.0	 1	    1.10000	    0.90000;
	1003	 1	 2153.3224	 366.856	 0.0	 0.0	 10	    0.97318	    0.00000	 230.0	 1	    1.10000	    0.90000;
	1004	 1	 1037.9499	 5.521	 0.0	 0.0	 10	    1.06648	    0.00000	 345.0	 1	    1.10000	    0.90000;
	1032	 2	 0.0	 0.0	 0.0	 0.0	 10	    1.01659	    0.00000	 20.0	 1	    1.10000	    0.90000;
	1034	 2	 0.0	 0.0	 0.0	 0.0	 10	    1.07305	    0.00000	 20.0	 1	    1.10000	    0.90000;
	1101	 1	 4527.3661	 -137.044	 0.0	 0.0	 10	    1.01000	    0.00000	 500.0	 1	    1.10000	    0.90000;
	1102	 1	 176.4436	 23.004	 0.0	 0.0	 10	    0.97727	    0.00000	 345.0	 1	    1.10000	    0.90000;
	1131	 2	 0.0	 0.0	 0.0	 0.0	 10	    1.01126	    0.00000	 20.0	 1	    1.10000	    0.90000;
	1201	 1	 166.9882	 -2.012	 0.0	 0.0	 10	    1.08433	    0.00000	 500.0	 1	    1.10000	    0.90000;
	1202	 1	 875.61	 287.131	 0.0	 0.0	 10	    1.08000	    0.00000	 500.0	 1	    1.10000	    0.90000;
	1232	 2	 0.0	 0.0	 0.0	 0.0	 10	    1.08070	    0.00000	 20.0	 1	    1.10000	    0.90000;
	1301	 1	 2704.7793	 352.826	 0.0	 0.0	 10	    1.04500	    0.00000	 500.0	 1	    1.10000	    0.90000;
	1302	 1	 17.5556	 2.304	 0.0	 0.0	 10	    1.02783	    0.00000	 500.0	 1	    1.10000	    0.90000;
	1303	 1	 6235.136	 813.349	 0.0	 0.0	 10	    1.00500	    0.00000	 345.0	 1	    1.10000	    0.90000;
	1331	 2	 0.0	 0.0	 0.0	 0.0	 10	    1.04552	    0.00000	 20.0	 1	    1.10000	    0.90000;
	1333	 2	 0.0	 0.0	 0.0	 0.0	 10	    1.00803	    0.00000	 20.0	 1	    1.10000	    0.90000;
	1401	 1	 6535.5365	 1524.594	 0.0	 0.0	 10	    1.03500	    0.00000	 500.0	 1	    1.10000	    0.90000;
	1402	 1	 5366.6305	 -600.162	 0.0	 0.0	 10	    1.05631	    0.00000	 500.0	 1	    1.10000	    0.90000;
	1403	 1	 0.0	 0.0	 0.0	 0.0	 10	    1.03567	    0.00000	 230.0	 1	    1.10000	    0.90000;
	1431	 2	 0.0	 0.0	 0.0	 0.0	 10	    1.04034	    0.00000	 20.0	 1	    1.10000	    0.90000;
	2000	 1	 2207.188	 287.916	 0.0	 0.0	 20	    1.00000	    0.00000	 230.0	 1	    1.10000	    0.90000;
	2030	 2	 0.0	 0.0	 0.0	 0.0	 20	    1.00143	    0.00000	 20.0	 1	    1.10000	    0.90000;
	2100	 1	 281.1513	 54.83	 0.0	 0.0	 21	    1.03405	    0.00000	 230.0	 1	    1.10000	    0.90000;
	2130	 2	 0.0	 0.0	 0.0	 0.0	 21	    1.03491	    0.00000	 20.0	 1	    1.10000	    0.90000;
	2201	 1	 0.0	 0.0	 0.0	 0.0	 22	    0.98831	    0.00000	 500.0	 1	    1.10000	    0.90000;
	2202	 1	 1545.949	 268.565	 0.0	 0.0	 22	    0.98575	    0.00000	 230.0	 1	    1.10000	    0.90000;
	2203	 1	 1708.5525	 278.273	 0.0	 0.0	 22	    1.00500	    0.00000	 230.0	 1	    1.10000	    0.90000;
	2233	 2	 0.0	 0.0	 0.0	 0.0	 22	    1.00732	    0.00000	 20.0	 1	    1.10000	    0.90000;
	2301	 1	 0.0	 0.0	 0.0	 0.0	 22	    1.03448	    0.00000	 500.0	 1	    1.10000	    0.90000;
	2302	 1	 0.0	 0.0	 0.0	 0.0	 22	    1.03500	    0.00000	 230.0	 1	    1.10000	    0.90000;
	2332	 2	 0.0	 0.0	 0.0	 0.0	 22	    1.03543	    0.00000	 20.0	 1	    1.10000	    0.90000;
	2400	 1	 843.2926	 76.663	 0.0	 0.0	 24	    1.02050	    0.00000	 500.0	 1	    1.10000	    0.90000;
	2401	 1	 882.3636	 105.214	 0.0	 0.0	 24	    1.02999	    0.00000	 500.0	 1	    1.10000	    0.90000;
	2402	 1	 1080.0201	 81.979	 0.0	 0.0	 24	    1.01312	    0.00000	 500.0	 1	    1.10000	    0.90000;
	2403	 1	 1050.004	 38.543	 0.0	 0.0	 24	    1.01290	    0.00000	 500.0	 1	    1.10000	    0.90000;
	2404	 1	 0.0	 0.0	 0.0	 0.0	 24	    1.01543	    0.00000	 500.0	 1	    1.10000	    0.90000;
	2405	 1	 824.6826	 22.901	 0.0	 0.0	 24	    1.01124	    0.00000	 230.0	 1	    1.10000	    0.90000;
	2406	 1	 737.4036	 -40.751	 0.0	 0.0	 24	    1.00189	    0.00000	 230.0	 1	    1.10000	    0.90000;
	2407	 1	 1732.771	 -36.535	 0.0	 0.0	 24	    0.96838	    0.00000	 230.0	 1	    1.10000	    0.90000;
	2408	 1	 1743.2768	 -72.623	 0.0	 0.0	 24	    1.00900	    0.00000	 230.0	 1	    1.10000	    0.90000;
	2409	 1	 1601.7777	 -86.698	 0.0	 0.0	 24	    1.00678	    0.00000	 230.0	 1	    1.10000	    0.90000;
	2410	 1	 1576.7872	 58.184	 0.0	 0.0	 24	    1.00274	    0.00000	 230.0	 1	    1.10000	    0.90000;
	2411	 1	 1087.6239	 75.955	 0.0	 0.0	 24	    1.00888	    0.00000	 230.0	 1	    1.10000	    0.90000;
	2438	 2	 0.0	 0.0	 0.0	 0.0	 24	    1.01283	    0.00000	 20.0	 1	    1.10000	    0.90000;
	2501	 1	 0.0	 0.0	 0.0	 0.0	 25	    1.00884	    0.00000	 500.0	 1	    1.10000	    0.90000;
	2502	 1	 2369.1531	 -91.905	 0.0	 0.0	 25	    1.00515	    0.00000	 230.0	 1	    1.10000	    0.90000;
	2503	 1	 1845.9256	 201.991	 0.0	 0.0	 25	    1.00900	    0.00000	 230.0	 1	    1.10000	    0.90000;
	2533	 2	 0.0	 0.0	 0.0	 0.0	 25	    1.01077	    0.00000	 20.0	 1	    1.10000	    0.90000;
	2600	 1	 -1863.9044	 0.0	 0.0	 0.0	 90	    1.04252	    0.00000	 500.0	 1	    1.10000	    0.90000;
	2601	 1	 0.0	 0.0	 0.0	 0.0	 26	    1.04030	    0.00000	 500.0	 1	    1.10000	    0.90000;
	2602	 1	 99.2784	 12.955	 0.0	 0.0	 26	    1.01689	    0.00000	 500.0	 1	    1.10000	    0.90000;
	2603	 1	 0.0	 0.0	 0.0	 0.0	 26	    1.04270	    0.00000	 500.0	 1	    1.10000	    0.90000;
	2604	 1	 2050.7816	 0.0	 0.0	 0.0	 90	    1.06000	    0.00000	 345.0	 1	    1.10000	    0.90000;
	2605	 1	 0.0	 0.0	 0.0	 0.0	 26	    1.01617	    0.00000	 287.0	 1	    1.10000	    0.90000;
	2606	 1	 0.0	 0.0	 0.0	 0.0	 26	    1.01617	    0.00000	 287.0	 1	    1.10000	    0.90000;
	2607	 1	 0.0	 0.0	 0.0	 0.0	 26	    1.03742	    0.00000	 287.0	 1	    1.10000	    0.90000;
	2608	 1	 99.2784	 12.955	 0.0	 0.0	 26	    1.02295	    0.00000	 230.0	 1	    1.10000	    0.90000;
	2609	 1	 134.0261	 26.805	 0.0	 0.0	 26	    0.99753	    0.00000	 230.0	 1	    1.10000	    0.90000;
	2610	 1	 99.2784	 12.955	 0.0	 0.0	 26	    1.00400	    0.00000	 230.0	 1	    1.10000	    0.90000;
	2611	 1	 99.2784	 12.955	 0.0	 0.0	 26	    1.02086	    0.00000	 230.0	 1	    1.10000	    0.90000;
	2612	 1	 120.1277	 24.819	 0.0	 0.0	 26	    1.01500	    0.00000	 230.0	 1	    1.10000	    0.90000;
	2613	 1	 317.693	 64.532	 0.0	 0.0	 26	    0.99259	    0.00000	 230.0	 1	    1.10000	    0.90000;
	2614	 1	 137.0047	 27.798	 0.0	 0.0	 26	    0.99908	    0.00000	 230.0	 1	    1.10000	    0.90000;
	2615	 1	 801.9756	 131.148	 0.0	 0.0	 26	    1.00325	    0.00000	 230.0	 1	    1.10000	    0.90000;
	2616	 1	 116.1565	 23.827	 0.0	 0.0	 26	    0.99430	    0.00000	 230.0	 1	    1.10000	    0.90000;
	2617	 1	 120.1277	 24.819	 0.0	 0.0	 26	    0.99561	    0.00000	 230.0	 1	    1.10000	    0.90000;
	2618	 1	 881.2994	 -6.155	 0.0	 0.0	 26	    1.01246	    0.00000	 230.0	 1	    1.10000	    0.90000;
	2619	 1	 -2773.8339	 0.0	 0.0	 0.0	 90	    1.01337	    0.00000	 230.0	 1	    1.10000	    0.90000;
	2620	 1	 203.7206	 17.473	 0.0	 0.0	 26	    1.00929	    0.00000	 230.0	 1	    1.10000	    0.90000;
	2621	 1	 235.4897	 -62.745	 0.0	 0.0	 26	    1.00909	    0.00000	 138.0	 1	    1.10000	    0.90000;
	2630	 2	 0.0	 0.0	 0.0	 0.0	 26	    1.00498	    0.00000	 20.0	 1	    1.10000	    0.90000;
	2631	 2	 0.0	 0.0	 0.0	 0.0	 26	    1.02150	    0.00000	 20.0	 1	    1.10000	    0.90000;
	2634	 2	 0.0	 0.0	 0.0	 0.0	 90	    1.06065	    0.00000	 20.0	 1	    1.10000	    0.90000;
	2637	 2	 0.0	 0.0	 0.0	 0.0	 26	    1.01545	    0.00000	 20.0	 1	    1.10000	    0.90000;
	2638	 2	 0.0	 0.0	 0.0	 0.0	 26	    1.02336	    0.00000	 20.0	 1	    1.10000	    0.90000;
	2901	 1	 0.0	 0.0	 0.0	 0.0	 24	    1.09191	    0.00000	 500.0	 1	    1.10000	    0.90000;
	2902	 1	 0.0	 0.0	 0.0	 0.0	 24	    1.09971	    0.00000	 500.0	 1	    1.10000	    0.90000;
	3101	 1	 341.3057	 52.828	 0.0	 0.0	 31	    0.98526	    0.00000	 230.0	 1	    1.10000	    0.90000;
	3102	 1	 159.4648	 24.929	 0.0	 0.0	 31	    0.99050	    0.00000	 230.0	 1	    1.10000	    0.90000;
	3103	 1	 419.6109	 59.777	 0.0	 0.0	 32	    1.00000	    0.00000	 230.0	 1	    1.10000	    0.90000;
	3104	 1	 309.9718	 40.133	 0.0	 0.0	 31	    0.98667	    0.00000	 115.0	 1	    1.10000	    0.90000;
	3105	 1	 239.3018	 49.091	 0.0	 0.0	 31	    1.00000	    0.00000	 115.0	 1	    1.10000	    0.90000;
	3133	 2	 0.0	 0.0	 0.0	 0.0	 32	    1.00118	    0.00000	 20.0	 1	    1.10000	    0.90000;
	3135	 2	 0.0	 0.0	 0.0	 0.0	 31	    1.00047	    0.00000	 20.0	 1	    1.10000	    0.90000;
	3201	 1	 462.4769	 97.849	 0.0	 0.0	 32	    1.00705	    0.00000	 230.0	 1	    1.10000	    0.90000;
	3202	 1	 586.1795	 83.473	 0.0	 0.0	 32	    1.00507	    0.00000	 230.0	 1	    1.10000	    0.90000;
	3203	 1	 657.1046	 158.476	 0.0	 0.0	 32	    1.00164	    0.00000	 230.0	 1	    1.10000	    0.90000;
	3204	 1	 668.7879	 95.313	 0.0	 0.0	 32	    1.01000	    0.00000	 230.0	 1	    1.10000	    0.90000;
	3205	 1	 546.0609	 77.782	 0.0	 0.0	 32	    1.00190	    0.00000	 230.0	 1	    1.10000	    0.90000;
	3234	 2	 0.0	 0.0	 0.0	 0.0	 32	    1.01185	    0.00000	 20.0	 1	    1.10000	    0.90000;
	3301	 1	 0.0	 0.0	 0.0	 0.0	 32	    0.99283	    0.00000	 500.0	 1	    1.10000	    0.90000;
	3302	 1	 345.3259	 85.791	 0.0	 0.0	 32	    0.98505	    0.00000	 230.0	 1	    1.10000	    0.90000;
	3303	 1	 625.4106	 150.715	 0.0	 0.0	 32	    1.00000	    0.00000	 230.0	 1	    1.10000	    0.90000;
	3304	 1	 533.4822	 122.616	 0.0	 0.0	 32	    0.98953	    0.00000	 230.0	 1	    1.10000	    0.90000;
	3305	 1	 430.3196	 61.225	 0.0	 0.0	 32	    0.99781	    0.00000	 230.0	 1	    1.10000	    0.90000;
	3333	 2	 0.0	 0.0	 0.0	 0.0	 32	    1.00266	    0.00000	 20.0	 1	    1.10000	    0.90000;
	3401	 1	 557.7071	 135.909	 0.0	 0.0	 34	    0.97030	    0.00000	 230.0	 1	    1.10000	    0.90000;
	3402	 1	 0.0	 0.0	 0.0	 0.0	 34	    1.00000	    0.00000	 230.0	 1	    1.10000	    0.90000;
	3403	 1	 515.9687	 73.583	 0.0	 0.0	 34	    1.00000	    0.00000	 230.0	 1	    1.10000	    0.90000;
	3404	 1	 438.461	 62.075	 0.0	 0.0	 34	    0.97523	    0.00000	 230.0	 1	    1.10000	    0.90000;
	3405	 1	 448.8976	 63.723	 0.0	 0.0	 34	    0.95898	    0.00000	 230.0	 1	    1.10000	    0.90000;
	3432	 2	 0.0	 0.0	 0.0	 0.0	 34	    1.00095	    0.00000	 20.0	 1	    1.10000	    0.90000;
	3433	 2	 0.0	 0.0	 0.0	 0.0	 34	    1.00072	    0.00000	 20.0	 1	    1.10000	    0.90000;
	3501	 1	 625.0164	 89.015	 0.0	 0.0	 35	    1.00000	    0.00000	 230.0	 1	    1.10000	    0.90000;
	3531	 2	 0.0	 0.0	 0.0	 0.0	 35	    1.00035	    0.00000	 20.0	 1	    1.10000	    0.90000;
	3601	 1	 104.8564	 14.844	 0.0	 0.0	 36	    1.01500	    0.00000	 115.0	 1	    1.10000	    0.90000;
	3631	 2	 0.0	 0.0	 0.0	 0.0	 36	    1.01483	    0.00000	 20.0	 1	    1.10000	    0.90000;
	3701	 1	 317.0506	 15.847	 0.0	 0.0	 37	    1.00400	    0.00000	 115.0	 1	    1.10000	    0.90000;
	3731	 2	 0.0	 0.0	 0.0	 0.0	 37	    1.00499	    0.00000	 20.0	 1	    1.10000	    0.90000;
	3801	 1	 191.2229	 47.411	 0.0	 0.0	 38	    1.04900	    0.00000	 500.0	 1	    1.10000	    0.90000;
	3802	 1	 0.0	 0.0	 0.0	 0.0	 38	    1.00676	    0.00000	 500.0	 1	    1.10000	    0.90000;
	3803	 1	 0.0	 0.0	 0.0	 0.0	 38	    1.02038	    0.00000	 500.0	 1	    1.10000	    0.90000;
	3804	 1	 223.6404	 55.318	 0.0	 0.0	 38	    0.98982	    0.00000	 230.0	 1	    1.10000	    0.90000;
	3805	 1	 499.3888	 163.106	 0.0	 0.0	 38	    1.03500	    0.00000	 230.0	 1	    1.10000	    0.90000;
	3806	 1	 289.5858	 41.366	 0.0	 0.0	 38	    1.01900	    0.00000	 230.0	 1	    1.10000	    0.90000;
	3831	 2	 0.0	 0.0	 0.0	 0.0	 38	    1.05081	    0.00000	 20.0	 1	    1.10000	    0.90000;
	3835	 2	 0.0	 0.0	 0.0	 0.0	 38	    1.03719	    0.00000	 20.0	 1	    1.10000	    0.90000;
	3836	 2	 0.0	 0.0	 0.0	 0.0	 38	    1.01920	    0.00000	 20.0	 1	    1.10000	    0.90000;
	3891	 1	 0.0	 0.0	 0.0	 0.0	 38	    1.04164	    0.00000	 500.0	 1	    1.10000	    0.90000;
	3892	 1	 0.0	 0.0	 0.0	 0.0	 38	    1.01052	    0.00000	 500.0	 1	    1.10000	    0.90000;
	3893	 1	 0.0	 0.0	 0.0	 0.0	 38	    1.02256	    0.00000	 500.0	 1	    1.10000	    0.90000;
	3894	 1	 0.0	 0.0	 0.0	 0.0	 38	    1.01028	    0.00000	 500.0	 1	    1.10000	    0.90000;
	3895	 1	 0.0	 0.0	 0.0	 0.0	 38	    1.02289	    0.00000	 500.0	 1	    1.10000	    0.90000;
	3896	 1	 0.0	 0.0	 0.0	 0.0	 38	    1.01089	    0.00000	 500.0	 1	    1.10000	    0.90000;
	3897	 1	 0.0	 0.0	 0.0	 0.0	 38	    1.02386	    0.00000	 500.0	 1	    1.10000	    0.90000;
	3901	 1	 0.0	 0.0	 0.0	 0.0	 39	    0.93761	    0.00000	 500.0	 1	    1.10000	    0.90000;
	3902	 1	 152.9913	 38.248	 0.0	 0.0	 39	    1.00000	    0.00000	 500.0	 1	    1.10000	    0.90000;
	3903	 1	 213.2478	 30.269	 0.0	 0.0	 39	    1.00147	    0.00000	 500.0	 1	    1.10000	    0.90000;
	3904	 1	 0.0	 0.0	 0.0	 0.0	 39	    1.08142	    0.00000	 500.0	 1	    1.10000	    0.90000;
	3905	 1	 0.0	 0.0	 0.0	 0.0	 39	    1.03509	    0.00000	 500.0	 1	    1.10000	    0.90000;
	3906	 1	 0.0	 0.0	 0.0	 0.0	 39	    1.06427	    0.00000	 500.0	 1	    1.10000	    0.90000;
	3907	 1	 461.3573	 63.071	 0.0	 0.0	 39	    0.96150	    0.00000	 230.0	 1	    1.10000	    0.90000;
	3908	 1	 200.2788	 24.716	 0.0	 0.0	 39	    0.96379	    0.00000	 230.0	 1	    1.10000	    0.90000;
	3909	 1	 170.957	 39.785	 0.0	 0.0	 39	    0.96839	    0.00000	 230.0	 1	    1.10000	    0.90000;
	3910	 1	 241.8392	 34.44	 0.0	 0.0	 39	    0.97886	    0.00000	 230.0	 1	    1.10000	    0.90000;
	3911	 1	 233.1345	 47.114	 0.0	 0.0	 39	    1.03652	    0.00000	 230.0	 1	    1.10000	    0.90000;
	3912	 1	 174.5029	 -0.634	 0.0	 0.0	 39	    1.02038	    0.00000	 230.0	 1	    1.10000	    0.90000;
	3913	 1	 329.5484	 43.435	 0.0	 0.0	 39	    0.97800	    0.00000	 230.0	 1	    1.10000	    0.90000;
	3914	 1	 227.7536	 52.549	 0.0	 0.0	 39	    0.99051	    0.00000	 230.0	 1	    1.10000	    0.90000;
	3915	 1	 254.4589	 53.402	 0.0	 0.0	 39	    1.00124	    0.00000	 230.0	 1	    1.10000	    0.90000;
	3916	 1	 155.0024	 0.0	 0.0	 0.0	 39	    1.01995	    0.00000	 230.0	 1	    1.10000	    0.90000;
	3917	 1	 238.1882	 43.995	 0.0	 0.0	 39	    0.94562	    0.00000	 230.0	 1	    1.10000	    0.90000;
	3918	 1	 319.2809	 75.464	 0.0	 0.0	 39	    0.99024	    0.00000	 230.0	 1	    1.10000	    0.90000;
	3919	 1	 184.5093	 24.094	 0.0	 0.0	 39	    0.97393	    0.00000	 230.0	 1	    1.10000	    0.90000;
	3920	 1	 172.5018	 23.677	 0.0	 0.0	 39	    0.97710	    0.00000	 230.0	 1	    1.10000	    0.90000;
	3921	 1	 150.8902	 34.821	 0.0	 0.0	 39	    1.07000	    0.00000	 230.0	 1	    1.10000	    0.90000;
	3922	 1	 253.4454	 31.919	 0.0	 0.0	 39	    0.99452	    0.00000	 230.0	 1	    1.10000	    0.90000;
	3923	 1	 399.0618	 67.021	 0.0	 0.0	 39	    1.01200	    0.00000	 230.0	 1	    1.10000	    0.90000;
	3924	 1	 332.4879	 47.165	 0.0	 0.0	 39	    1.02114	    0.00000	 230.0	 1	    1.10000	    0.90000;
	3925	 1	 0.0	 0.0	 0.0	 0.0	 39	    1.02680	    0.00000	 115.0	 1	    1.10000	    0.90000;
	3926	 1	 267.3529	 16.668	 0.0	 0.0	 39	    0.98959	    0.00000	 115.0	 1	    1.10000	    0.90000;
	3931	 2	 0.0	 0.0	 0.0	 0.0	 39	    1.07075	    0.00000	 20.0	 1	    1.10000	    0.90000;
	3932	 2	 0.0	 0.0	 0.0	 0.0	 39	    1.00337	    0.00000	 20.0	 1	    1.10000	    0.90000;
	3933	 3	 0.0	 0.0	 0.0	 0.0	 39	    1.01339	    0.00000	 20.0	 1	    1.10000	    0.90000;
	4001	 1	 0.0	 0.0	 0.0	 0.0	 40	    1.08000	    0.00000	 500.0	 1	    1.10000	    0.90000;
	4002	 1	 168.6841	 21.998	 0.0	 0.0	 40	    1.14175	    0.00000	 500.0	 1	    1.10000	    0.90000;
	4003	 1	 0.0	 0.0	 0.0	 0.0	 40	    1.20872	    0.00000	 500.0	 1	    1.10000	    0.90000;
	4004	 1	 270.4505	 35.297	 0.0	 0.0	 40	    1.11615	    0.00000	 500.0	 1	    1.10000	    0.90000;
	4005	 1	 480.1144	 157.418	 0.0	 0.0	 40	    1.12100	    0.00000	 500.0	 1	    1.10000	    0.90000;
	4006	 1	 0.0	 0.0	 0.0	 0.0	 40	    1.11010	    0.00000	 500.0	 1	    1.10000	    0.90000;
	4007	 1	 0.0	 0.0	 0.0	 0.0	 40	    1.10993	    0.00000	 500.0	 1	    1.10000	    0.90000;
	4008	 1	 285.1446	 37.198	 0.0	 0.0	 40	    1.06829	    0.00000	 345.0	 1	    1.10000	    0.90000;
	4009	 1	 2208.7429	 431.395	 0.0	 0.0	 40	    1.10948	    0.00000	 230.0	 1	    1.10000	    0.90000;
	4010	 1	 3133.6101	 0.0	 0.0	 0.0	 90	    1.10915	    0.00000	 230.0	 1	    1.10000	    0.90000;
	4031	 2	 0.0	 0.0	 0.0	 0.0	 40	    1.08102	    0.00000	 20.0	 1	    1.10000	    0.90000;
	4035	 2	 0.0	 0.0	 0.0	 0.0	 40	    1.12600	    0.00000	 20.0	 1	    1.10000	    0.90000;
	4039	 2	 0.0	 0.0	 0.0	 0.0	 40	    1.11258	    0.00000	 20.0	 1	    1.10000	    0.90000;
	4090	 1	 0.0	 0.0	 0.0	 0.0	 40	    1.13412	    0.00000	 500.0	 1	    1.10000	    0.90000;
	4091	 1	 0.0	 0.0	 0.0	 0.0	 40	    1.13015	    0.00000	 500.0	 1	    1.10000	    0.90000;
	4092	 1	 0.0	 0.0	 0.0	 0.0	 40	    1.09959	    0.00000	 500.0	 1	    1.10000	    0.90000;
	4093	 1	 0.0	 0.0	 0.0	 0.0	 40	    1.09844	    0.00000	 500.0	 1	    1.10000	    0.90000;
	4094	 1	 0.0	 0.0	 0.0	 0.0	 40	    1.11332	    0.00000	 500.0	 1	    1.10000	    0.90000;
	4095	 1	 0.0	 0.0	 0.0	 0.0	 40	    1.09810	    0.00000	 500.0	 1	    1.10000	    0.90000;
	4096	 1	 0.0	 0.0	 0.0	 0.0	 40	    1.09693	    0.00000	 500.0	 1	    1.10000	    0.90000;
	4097	 1	 0.0	 0.0	 0.0	 0.0	 40	    1.11270	    0.00000	 500.0	 1	    1.10000	    0.90000;
	4101	 1	 995.0275	 129.784	 0.0	 0.0	 40	    1.12800	    0.00000	 500.0	 1	    1.10000	    0.90000;
	4102	 1	 480.649	 68.664	 0.0	 0.0	 40	    1.09600	    0.00000	 500.0	 1	    1.10000	    0.90000;
	4103	 1	 11.6269	 1.509	 0.0	 0.0	 40	    1.09056	    0.00000	 500.0	 1	    1.10000	    0.90000;
	4104	 1	 2527.7724	 329.74	 0.0	 0.0	 40	    1.06153	    0.00000	 230.0	 1	    1.10000	    0.90000;
	4131	 2	 0.0	 0.0	 0.0	 0.0	 40	    1.13184	    0.00000	 20.0	 1	    1.10000	    0.90000;
	4132	 2	 0.0	 0.0	 0.0	 0.0	 40	    1.09413	    0.00000	 20.0	 1	    1.10000	    0.90000;
	4201	 1	 5762.6589	 461.013	 0.0	 0.0	 40	    1.12000	    0.00000	 500.0	 1	    1.10000	    0.90000;
	4202	 1	 4558.2389	 594.626	 0.0	 0.0	 40	    1.08000	    0.00000	 500.0	 1	    1.10000	    0.90000;
	4203	 1	 4379.6262	 571.331	 0.0	 0.0	 40	    1.03563	    0.00000	 500.0	 1	    1.10000	    0.90000;
	4204	 1	 1014.5202	 132.34	 0.0	 0.0	 40	    1.07149	    0.00000	 500.0	 1	    1.10000	    0.90000;
	4231	 2	 0.0	 0.0	 0.0	 0.0	 40	    1.12648	    0.00000	 20.0	 1	    1.10000	    0.90000;
	4232	 2	 0.0	 0.0	 0.0	 0.0	 40	    1.08376	    0.00000	 20.0	 1	    1.10000	    0.90000;
	5001	 1	 7574.0522	 1721.375	 0.0	 0.0	 50	    1.05000	    0.00000	 500.0	 1	    1.10000	    0.90000;
	5002	 1	 9003.9839	 1174.359	 0.0	 0.0	 50	    1.05500	    0.00000	 500.0	 1	    1.10000	    0.90000;
	5003	 1	 615.2178	 80.253	 0.0	 0.0	 50	    1.04820	    0.00000	 230.0	 1	    1.10000	    0.90000;
	5004	 1	 0.0	 0.0	 0.0	 0.0	 50	    1.05346	    0.00000	 230.0	 1	    1.10000	    0.90000;
	5031	 2	 0.0	 0.0	 0.0	 0.0	 50	    1.05527	    0.00000	 20.0	 1	    1.10000	    0.90000;
	5032	 2	 0.0	 0.0	 0.0	 0.0	 50	    1.06129	    0.00000	 20.0	 1	    1.10000	    0.90000;
	6101	 1	 0.0	 0.0	 0.0	 0.0	 61	    1.16458	    0.00000	 500.0	 1	    1.10000	    0.90000;
	6102	 1	 1053.1441	 -345.277	 0.0	 0.0	 61	    1.13000	    0.00000	 345.0	 1	    1.10000	    0.90000;
	6103	 1	 391.888	 51.111	 0.0	 0.0	 61	    1.09911	    0.00000	 345.0	 1	    1.10000	    0.90000;
	6104	 1	 1694.958	 221.085	 0.0	 0.0	 61	    1.03189	    0.00000	 230.0	 1	    1.10000	    0.90000;
	6132	 2	 0.0	 0.0	 0.0	 0.0	 61	    1.12860	    0.00000	 20.0	 1	    1.10000	    0.90000;
	6201	 1	 205.82	 26.857	 0.0	 0.0	 60	    1.12000	    0.00000	 500.0	 1	    1.10000	    0.90000;
...
];

%% generator data
%	bus	Pg	Qg	Qmax	Qmin	Vg	mBase	status	Pmax	Pmin	Pc1	Pc2	Qc1min	Qc1max	Qc2min	Qc2max	ramp_agc	ramp_10	ramp_30	ramp_q	apf
mpc.gen = [
	1032	 1825.0	 398.34	 1030.0	 -1030.0	 1.014	 100.0	 1	 2060.0	 0.0	 0.0	 0.0	 0.0	 0.0	 0.0	 0.0	 0.0	 0.0	 0.0	 0.0	 0.0; % NUC
	1032	 262.8	 138.07	 357.0	 -357.0	 1.014	 100.0	 1	 714.0	 0.0	 0.0	 0.0	 0.0	 0.0	 0.0	 0.0	 0.0	 0.0	 0.0	 0.0	 0.0; % COW
	1034	 4064.0	 887.19	 2294.0	 -2294.0	 1.014	 100.0	 1	 4587.0	 0.0	 0.0	 0.0	 0.0	 0.0	 0.0	 0.0	 0.0	 0.0	 0.0	 0.0	 0.0; % COW
	1034	 1402.0	 355.03	 918.0	 -918.0	 1.014	 100.0	 1	 1835.0	 0.0	 0.0	 0.0	 0.0	 0.0	 0.0	 0.0	 0.0	 0.0	 0.0	 0.0	 0.0; % COW
	1034	 1370.0	 270.72	 700.0	 -700.0	 1.014	 100.0	 1	 1400.0	 0.0	 0.0	 0.0	 0.0	 0.0	 0.0	 0.0	 0.0	 0.0	 0.0	 0.0	 0.0; % COW
	1131	 545.0	 34.69	 308.0	 -308.0	 1.01	 100.0	 1	 615.0	 0.0	 0.0	 0.0	 0.0	 0.0	 0.0	 0.0	 0.0	 0.0	 0.0	 0.0	 0.0; % COW
	1131	 1287.15	 215.79	 1916.0	 -1916.0	 1.01	 100.0	 1	 3830.8	 0.0	 0.0	 0.0	 0.0	 0.0	 0.0	 0.0	 0.0	 0.0	 0.0	 0.0	 0.0; % COW
	1131	 48.0	 13.52	 120.0	 -120.0	 1.01	 100.0	 1	 240.0	 0.0	 0.0	 0.0	 0.0	 0.0	 0.0	 0.0	 0.0	 0.0	 0.0	 0.0	 0.0; % NG
	1232	 2140.0	 115.89	 1208.0	 -1208.0	 1.08	 100.0	 1	 2415.0	 0.0	 0.0	 0.0	 0.0	 0.0	 0.0	 0.0	 0.0	 0.0	 0.0	 0.0	 0.0; % COW
	1232	 1244.4	 60.25	 628.0	 -628.0	 1.08	 100.0	 1	 1256.0	 0.0	 0.0	 0.0	 0.0	 0.0	 0.0	 0.0	 0.0	 0.0	 0.0	 0.0	 0.0; % COW
	1331	 1682.0	 60.55	 841.0	 -841.0	 1.045	 100.0	 1	 1682.0	 0.0	 0.0	 0.0	 0.0	 0.0	 0.0	 0.0	 0.0	 0.0	 0.0	 0.0	 0.0; % COW
	1331	 2438.0	 87.76	 1219.0	 -1219.0	 1.045	 100.0	 1	 2438.0	 0.0	 0.0	 0.0	 0.0	 0.0	 0.0	 0.0	 0.0	 0.0	 0.0	 0.0	 0.0; % COW
	1333	 536.0	 66.45	 303.0	 -303.0	 1.005	 100.0	 1	 605.0	 0.0	 0.0	 0.0	 0.0	 0.0	 0.0	 0.0	 0.0	 0.0	 0.0	 0.0	 0.0; % COW
	1333	 4534.44	 602.24	 2746.0	 -2746.0	 1.005	 100.0	 1	 5491.0	 0.0	 0.0	 0.0	 0.0	 0.0	 0.0	 0.0	 0.0	 0.0	 0.0	 0.0	 0.0; % COW
	1333	 75.0	 8.33	 38.0	 -38.0	 1.005	 100.0	 1	 75.0	 0.0	 0.0	 0.0	 0.0	 0.0	 0.0	 0.0	 0.0	 0.0	 0.0	 0.0	 0.0; % PEL
	1431	 5012.16	 817.62	 3559.0	 -3559.0	 1.035	 100.0	 1	 7118.7	 0.0	 0.0	 0.0	 0.0	 0.0	 0.0	 0.0	 0.0	 0.0	 0.0	 0.0	 0.0; % NUC
	1431	 3825.0	 472.56	 2057.0	 -2057.0	 1.035	 100.0	 1	 4113.0	 0.0	 0.0	 0.0	 0.0	 0.0	 0.0	 0.0	 0.0	 0.0	 0.0	 0.0	 0.0; % NG
	1431	 30.0	 3.45	 15.0	 -15.0	 1.035	 100.0	 1	 30.0	 0.0	 0.0	 0.0	 0.0	 0.0	 0.0	 0.0	 0.0	 0.0	 0.0	 0.0	 0.0; % NG
	2030	 1829.04	 227.48	 1070.0	 -1070.0	 1.0	 100.0	 1	 2140.0	 0.0	 0.0	 0.0	 0.0	 0.0	 0.0	 0.0	 0.0	 0.0	 0.0	 0.0	 0.0; % PEL
	2030	 629.0	 74.41	 350.0	 -350.0	 1.0	 100.0	 1	 699.0	 0.0	 0.0	 0.0	 0.0	 0.0	 0.0	 0.0	 0.0	 0.0	 0.0	 0.0	 0.0; % COW
	2130	 171.4	 45.95	 200.0	 -200.0	 1.035	 100.0	 1	 400.0	 0.0	 0.0	 0.0	 0.0	 0.0	 0.0	 0.0	 0.0	 0.0	 0.0	 0.0	 0.0; % NG
	2130	 507.0	 58.35	 254.0	 -254.0	 1.035	 100.0	 1	 507.0	 0.0	 0.0	 0.0	 0.0	 0.0	 0.0	 0.0	 0.0	 0.0	 0.0	 0.0	 0.0; % COW
	2130	 477.8	 57.43	 250.0	 -250.0	 1.035	 100.0	 1	 500.0	 0.0	 0.0	 0.0	 0.0	 0.0	 0.0	 0.0	 0.0	 0.0	 0.0	 0.0	 0.0; % COW
	2130	 172.0	 19.76	 86.0	 -86.0	 1.035	 100.0	 1	 172.0	 0.0	 0.0	 0.0	 0.0	 0.0	 0.0	 0.0	 0.0	 0.0	 0.0	 0.0	 0.0; % NG
	2233	 418.71	 127.19	 304.0	 -118.0	 1.005	 100.0	 1	 706.0	 0.0	 0.0	 0.0	 0.0	 0.0	 0.0	 0.0	 0.0	 0.0	 0.0	 0.0	 0.0; % COW
	2233	 344.13	 255.64	 611.0	 -181.0	 1.005	 100.0	 1	 1253.0	 0.0	 0.0	 0.0	 0.0	 0.0	 0.0	 0.0	 0.0	 0.0	 0.0	 0.0	 0.0; % NUC
	2233	 231.0	 86.19	 206.0	 -155.0	 1.005	 100.0	 1	 500.0	 0.0	 0.0	 0.0	 0.0	 0.0	 0.0	 0.0	 0.0	 0.0	 0.0	 0.0	 0.0; % COW
	2332	 878.0	 91.48	 590.0	 -364.0	 1.035	 100.0	 1	 1118.0	 0.0	 0.0	 0.0	 0.0	 0.0	 0.0	 0.0	 0.0	 0.0	 0.0	 0.0	 0.0; % COW
	2438	 1043.27	 77.83	 728.0	 -454.0	 1.009	 100.0	 1	 1563.0	 0.0	 0.0	 0.0	 0.0	 0.0	 0.0	 0.0	 0.0	 0.0	 0.0	 0.0	 0.0; % NUC
	2438	 1816.96	 203.33	 1902.0	 -1168.0	 1.009	 100.0	 1	 3718.0	 0.0	 0.0	 0.0	 0.0	 0.0	 0.0	 0.0	 0.0	 0.0	 0.0	 0.0	 0.0; % NUC
	2438	 761.99	 245.98	 2301.0	 -1053.0	 1.009	 100.0	 1	 2803.0	 0.0	 0.0	 0.0	 0.0	 0.0	 0.0	 0.0	 0.0	 0.0	 0.0	 0.0	 0.0; % COW
	2438	 670.0	 70.45	 659.0	 -523.0	 1.009	 100.0	 1	 1340.0	 0.0	 0.0	 0.0	 0.0	 0.0	 0.0	 0.0	 0.0	 0.0	 0.0	 0.0	 0.0; % COW
	2438	 473.0	 46.61	 436.0	 -197.0	 1.009	 100.0	 1	 946.0	 0.0	 0.0	 0.0	 0.0	 0.0	 0.0	 0.0	 0.0	 0.0	 0.0	 0.0	 0.0; % COW
	2438	 255.0	 59.97	 561.0	 -553.0	 1.009	 100.0	 1	 1273.0	 0.0	 0.0	 0.0	 0.0	 0.0	 0.0	 0.0	 0.0	 0.0	 0.0	 0.0	 0.0; % COW
	2438	 2316.2	 204.18	 1910.0	 -1150.0	 1.009	 100.0	 1	 3967.0	 0.0	 0.0	 0.0	 0.0	 0.0	 0.0	 0.0	 0.0	 0.0	 0.0	 0.0	 0.0; % COW
	2438	 0.0	 0.0	 0.5	 0.0	 1.009	 100.0	 1	 0.0	 -1006.0	 0.0	 0.0	 0.0	 0.0	 0.0	 0.0	 0.0	 0.0	 0.0	 0.0	 0.0; % SYNC
	2533	 2076.0	 367.95	 1100.0	 -820.0	 1.009	 100.0	 1	 2232.0	 0.0	 0.0	 0.0	 0.0	 0.0	 0.0	 0.0	 0.0	 0.0	 0.0	 0.0	 0.0; % NUC
	2630	 2281.8	 209.93	 1346.0	 -1346.0	 1.004	 100.0	 1	 2692.0	 0.0	 0.0	 0.0	 0.0	 0.0	 0.0	 0.0	 0.0	 0.0	 0.0	 0.0	 0.0; % COW
	2631	 232.31	 131.92	 159.0	 -159.0	 1.015	 100.0	 1	 318.0	 0.0	 0.0	 0.0	 0.0	 0.0	 0.0	 0.0	 0.0	 0.0	 0.0	 0.0	 0.0; % NG
	2634	 1683.0	 145.08	 950.0	 -950.0	 1.06	 100.0	 1	 1900.0	 0.0	 0.0	 0.0	 0.0	 0.0	 0.0	 0.0	 0.0	 0.0	 0.0	 0.0	 0.0; % COW
	2637	 110.0	 91.26	 110.0	 -110.0	 1.015	 100.0	 1	 110.0	 0.0	 0.0	 0.0	 0.0	 0.0	 0.0	 0.0	 0.0	 0.0	 0.0	 0.0	 0.0; % NG
	2638	 0.0	 82.97	 100.0	 -100.0	 1.015	 100.0	 1	 1272.0	 -1272.0	 0.0	 0.0	 0.0	 0.0	 0.0	 0.0	 0.0	 0.0	 0.0	 0.0	 0.0; % COW
	3133	 30.8	 18.29	 42.0	 -29.0	 1.0	 100.0	 1	 42.0	 0.0	 0.0	 0.0	 0.0	 0.0	 0.0	 0.0	 0.0	 0.0	 0.0	 0.0	 0.0; % NG
	3133	 0.0	 217.73	 500.0	 -500.0	 1.0	 100.0	 1	 0.1	 0.0	 0.0	 0.0	 0.0	 0.0	 0.0	 0.0	 0.0	 0.0	 0.0	 0.0	 0.0; % PEL
	3135	 173.0	 65.81	 239.0	 -201.0	 1.0	 100.0	 1	 369.0	 0.0	 0.0	 0.0	 0.0	 0.0	 0.0	 0.0	 0.0	 0.0	 0.0	 0.0	 0.0; % NG
	3135	 19.6	 27.54	 100.0	 -85.0	 1.0	 100.0	 1	 26.0	 0.0	 0.0	 0.0	 0.0	 0.0	 0.0	 0.0	 0.0	 0.0	 0.0	 0.0	 0.0; % NG
	3234	 73.6	 21.79	 101.0	 -75.0	 1.01	 100.0	 1	 121.0	 0.0	 0.0	 0.0	 0.0	 0.0	 0.0	 0.0	 0.0	 0.0	 0.0	 0.0	 0.0; % COW
	3234	 1864.0	 268.34	 1244.0	 -1234.0	 1.01	 100.0	 1	 2628.0	 0.0	 0.0	 0.0	 0.0	 0.0	 0.0	 0.0	 0.0	 0.0	 0.0	 0.0	 0.0; % NUC
	3234	 294.4	 82.4	 382.0	 -212.0	 1.01	 100.0	 1	 707.0	 0.0	 0.0	 0.0	 0.0	 0.0	 0.0	 0.0	 0.0	 0.0	 0.0	 0.0	 0.0; % COW
	3234	 138.0	 16.18	 75.0	 -55.0	 1.01	 100.0	 1	 690.0	 0.0	 0.0	 0.0	 0.0	 0.0	 0.0	 0.0	 0.0	 0.0	 0.0	 0.0	 0.0; % COW
	3333	 674.8	 354.54	 398.0	 -226.0	 1.0	 100.0	 1	 690.0	 0.0	 0.0	 0.0	 0.0	 0.0	 0.0	 0.0	 0.0	 0.0	 0.0	 0.0	 0.0; % NUC
	3333	 136.4	 179.94	 202.0	 -143.0	 1.0	 100.0	 1	 213.0	 0.0	 0.0	 0.0	 0.0	 0.0	 0.0	 0.0	 0.0	 0.0	 0.0	 0.0	 0.0; % NG
	3432	 0.0	 190.76	 510.0	 -306.0	 1.0	 100.0	 1	 1218.0	 -924.0	 0.0	 0.0	 0.0	 0.0	 0.0	 0.0	 0.0	 0.0	 0.0	 0.0	 0.0; % NUC
	3433	 42.04	 29.16	 231.0	 -175.0	 1.0	 100.0	 1	 628.0	 0.0	 0.0	 0.0	 0.0	 0.0	 0.0	 0.0	 0.0	 0.0	 0.0	 0.0	 0.0; % COW
	3433	 1008.0	 118.53	 939.0	 -562.0	 1.0	 100.0	 1	 2016.0	 0.0	 0.0	 0.0	 0.0	 0.0	 0.0	 0.0	 0.0	 0.0	 0.0	 0.0	 0.0; % PEL
	3531	 781.0	 58.43	 1004.0	 -599.0	 1.0	 100.0	 1	 868.0	 0.0	 0.0	 0.0	 0.0	 0.0	 0.0	 0.0	 0.0	 0.0	 0.0	 0.0	 0.0; % NG
	3531	 293.0	 14.72	 253.0	 -181.0	 1.0	 100.0	 1	 325.0	 0.0	 0.0	 0.0	 0.0	 0.0	 0.0	 0.0	 0.0	 0.0	 0.0	 0.0	 0.0; % COW
	3531	 15.0	 0.76	 13.0	 -10.0	 1.0	 100.0	 1	 30.0	 0.0	 0.0	 0.0	 0.0	 0.0	 0.0	 0.0	 0.0	 0.0	 0.0	 0.0	 0.0; % PEL
	3631	 45.0	 -9.82	 20.0	 -14.0	 1.015	 100.0	 1	 53.0	 0.0	 0.0	 0.0	 0.0	 0.0	 0.0	 0.0	 0.0	 0.0	 0.0	 0.0	 0.0; % NG
	3631	 52.4	 -23.84	 74.0	 -34.0	 1.015	 100.0	 1	 143.0	 0.0	 0.0	 0.0	 0.0	 0.0	 0.0	 0.0	 0.0	 0.0	 0.0	 0.0	 0.0; % COW
	3731	 222.0	 200.03	 200.0	 -121.0	 1.004	 100.0	 1	 255.0	 0.0	 0.0	 0.0	 0.0	 0.0	 0.0	 0.0	 0.0	 0.0	 0.0	 0.0	 0.0; % NG
	3831	 2108.0	 390.23	 1175.0	 -980.0	 1.049	 100.0	 1	 2267.0	 0.0	 0.0	 0.0	 0.0	 0.0	 0.0	 0.0	 0.0	 0.0	 0.0	 0.0	 0.0; % COW
	3835	 279.2	 453.76	 662.0	 -479.0	 1.035	 100.0	 1	 1381.0	 0.0	 0.0	 0.0	 0.0	 0.0	 0.0	 0.0	 0.0	 0.0	 0.0	 0.0	 0.0; % COW
	3835	 0.0	 0.0	 0.5	 0.0	 1.035	 100.0	 1	 0.0	 -510.0	 0.0	 0.0	 0.0	 0.0	 0.0	 0.0	 0.0	 0.0	 0.0	 0.0	 0.0; % SYNC
	3836	 679.0	 42.71	 476.0	 -352.0	 1.019	 100.0	 1	 1021.0	 0.0	 0.0	 0.0	 0.0	 0.0	 0.0	 0.0	 0.0	 0.0	 0.0	 0.0	 0.0; % COW
	3931	 267.0	 17.39	 151.0	 -115.0	 1.07	 100.0	 1	 314.0	 0.0	 0.0	 0.0	 0.0	 0.0	 0.0	 0.0	 0.0	 0.0	 0.0	 0.0	 0.0; % COW
	3931	 1057.0	 147.9	 1284.0	 -946.0	 1.07	 100.0	 1	 3696.0	 0.0	 0.0	 0.0	 0.0	 0.0	 0.0	 0.0	 0.0	 0.0	 0.0	 0.0	 0.0; % NUC
	3932	 1478.0	 682.25	 1150.0	 -500.0	 1.0	 100.0	 1	 1478.0	 0.0	 0.0	 0.0	 0.0	 0.0	 0.0	 0.0	 0.0	 0.0	 0.0	 0.0	 0.0; % NUC
	3933	 555.2	 54.04	 363.0	 -82.0	 1.012	 100.0	 1	 590.0	 0.0	 0.0	 0.0	 0.0	 0.0	 0.0	 0.0	 0.0	 0.0	 0.0	 0.0	 0.0; % COW
	3933	 162.0	 11.46	 77.0	 -55.0	 1.012	 100.0	 1	 191.0	 0.0	 0.0	 0.0	 0.0	 0.0	 0.0	 0.0	 0.0	 0.0	 0.0	 0.0	 0.0; % NG
	3933	 154.8	 74.44	 500.0	 -307.0	 1.012	 100.0	 1	 1314.0	 0.0	 0.0	 0.0	 0.0	 0.0	 0.0	 0.0	 0.0	 0.0	 0.0	 0.0	 0.0; % NUC
	3933	 3467.0	 186.98	 1256.0	 -1041.0	 1.012	 100.0	 1	 3505.0	 0.0	 0.0	 0.0	 0.0	 0.0	 0.0	 0.0	 0.0	 0.0	 0.0	 0.0	 0.0; % COW
	3933	 59.0	 1.94	 13.0	 -11.0	 1.012	 100.0	 1	 293.0	 0.0	 0.0	 0.0	 0.0	 0.0	 0.0	 0.0	 0.0	 0.0	 0.0	 0.0	 0.0; % NG
	3933	 0.0	 0.0	 0.5	 0.0	 1.012	 100.0	 1	 0.0	 -449.0	 0.0	 0.0	 0.0	 0.0	 0.0	 0.0	 0.0	 0.0	 0.0	 0.0	 0.0; % NUC
	4039	 185.2	 41.01	 102.0	 -102.0	 1.121	 100.0	 1	 204.0	 0.0	 0.0	 0.0	 0.0	 0.0	 0.0	 0.0	 0.0	 0.0	 0.0	 0.0	 0.0; % NG
	4039	 2461.43	 586.55	 1459.0	 -1459.0	 1.121	 100.0	 1	 2918.0	 0.0	 0.0	 0.0	 0.0	 0.0	 0.0	 0.0	 0.0	 0.0	 0.0	 0.0	 0.0; % COW
	4039	 75.0	 75.58	 188.0	 -188.0	 1.121	 100.0	 1	 375.0	 0.0	 0.0	 0.0	 0.0	 0.0	 0.0	 0.0	 0.0	 0.0	 0.0	 0.0	 0.0; % COW
	4031	 953.2	 99.59	 502.0	 -502.0	 1.08	 100.0	 1	 1003.0	 0.0	 0.0	 0.0	 0.0	 0.0	 0.0	 0.0	 0.0	 0.0	 0.0	 0.0	 0.0; % COW
	4031	 878.42	 97.01	 489.0	 -489.0	 1.08	 100.0	 1	 978.0	 0.0	 0.0	 0.0	 0.0	 0.0	 0.0	 0.0	 0.0	 0.0	 0.0	 0.0	 0.0; % COW
	4031	 75.0	 7.54	 38.0	 -38.0	 1.08	 100.0	 1	 75.0	 0.0	 0.0	 0.0	 0.0	 0.0	 0.0	 0.0	 0.0	 0.0	 0.0	 0.0	 0.0; % PEL
	4031	 48.0	 23.81	 120.0	 -120.0	 1.08	 100.0	 1	 240.0	 0.0	 0.0	 0.0	 0.0	 0.0	 0.0	 0.0	 0.0	 0.0	 0.0	 0.0	 0.0; % NG
	4035	 452.0	 102.51	 255.0	 -255.0	 1.121	 100.0	 1	 510.0	 0.0	 0.0	 0.0	 0.0	 0.0	 0.0	 0.0	 0.0	 0.0	 0.0	 0.0	 0.0; % COW
	4035	 445.34	 123.42	 307.0	 -307.0	 1.121	 100.0	 1	 613.0	 0.0	 0.0	 0.0	 0.0	 0.0	 0.0	 0.0	 0.0	 0.0	 0.0	 0.0	 0.0; % COW
	4035	 3075.2	 738.11	 1836.0	 -1836.0	 1.121	 100.0	 1	 3671.0	 0.0	 0.0	 0.0	 0.0	 0.0	 0.0	 0.0	 0.0	 0.0	 0.0	 0.0	 0.0; % NUC
	4035	 195.0	 196.19	 488.0	 -488.0	 1.121	 100.0	 1	 976.0	 0.0	 0.0	 0.0	 0.0	 0.0	 0.0	 0.0	 0.0	 0.0	 0.0	 0.0	 0.0; % COW
	4131	 10082.0	 1050.64	 6482.0	 -6482.0	 1.128	 100.0	 1	 12963.0	 0.0	 0.0	 0.0	 0.0	 0.0	 0.0	 0.0	 0.0	 0.0	 0.0	 0.0	 0.0; % COW
	4131	 48.0	 19.45	 120.0	 -120.0	 1.128	 100.0	 1	 240.0	 0.0	 0.0	 0.0	 0.0	 0.0	 0.0	 0.0	 0.0	 0.0	 0.0	 0.0	 0.0; % NG
	4132	 575.8	 -88.3	 1473.0	 -1473.0	 1.096	 100.0	 1	 2945.0	 0.0	 0.0	 0.0	 0.0	 0.0	 0.0	 0.0	 0.0	 0.0	 0.0	 0.0	 0.0; % PEL
	4132	 4619.0	 -170.66	 2847.0	 -2847.0	 1.096	 100.0	 1	 5693.0	 0.0	 0.0	 0.0	 0.0	 0.0	 0.0	 0.0	 0.0	 0.0	 0.0	 0.0	 0.0; % COW
	4132	 1079.0	 -34.77	 580.0	 -580.0	 1.096	 100.0	 1	 1160.0	 0.0	 0.0	 0.0	 0.0	 0.0	 0.0	 0.0	 0.0	 0.0	 0.0	 0.0	 0.0; % COW
	4132	 461.0	 -13.85	 231.0	 -231.0	 1.096	 100.0	 1	 461.0	 0.0	 0.0	 0.0	 0.0	 0.0	 0.0	 0.0	 0.0	 0.0	 0.0	 0.0	 0.0; % COW
	4132	 35.0	 -5.27	 88.0	 -88.0	 1.096	 100.0	 1	 175.0	 0.0	 0.0	 0.0	 0.0	 0.0	 0.0	 0.0	 0.0	 0.0	 0.0	 0.0	 0.0; % NG
	4231	 1290.0	 339.68	 728.0	 -728.0	 1.12	 100.0	 1	 1456.0	 0.0	 0.0	 0.0	 0.0	 0.0	 0.0	 0.0	 0.0	 0.0	 0.0	 0.0	 0.0; % PEL
	4231	 364.6	 307.49	 659.0	 -659.0	 1.12	 100.0	 1	 1317.0	 0.0	 0.0	 0.0	 0.0	 0.0	 0.0	 0.0	 0.0	 0.0	 0.0	 0.0	 0.0; % COW
	4231	 2901.8	 843.61	 1808.0	 -1808.0	 1.12	 100.0	 1	 3615.0	 0.0	 0.0	 0.0	 0.0	 0.0	 0.0	 0.0	 0.0	 0.0	 0.0	 0.0	 0.0; % COW
	4231	 47.0	 11.2	 24.0	 -24.0	 1.12	 100.0	 1	 47.0	 0.0	 0.0	 0.0	 0.0	 0.0	 0.0	 0.0	 0.0	 0.0	 0.0	 0.0	 0.0; % NG
	4232	 496.8	 489.95	 592.0	 -592.0	 1.08	 100.0	 1	 1184.0	 0.0	 0.0	 0.0	 0.0	 0.0	 0.0	 0.0	 0.0	 0.0	 0.0	 0.0	 0.0; % COW
	4232	 496.2	 237.53	 287.0	 -287.0	 1.08	 100.0	 1	 573.0	 0.0	 0.0	 0.0	 0.0	 0.0	 0.0	 0.0	 0.0	 0.0	 0.0	 0.0	 0.0; % COW
	4232	 43.0	 89.38	 108.0	 -108.0	 1.08	 100.0	 1	 215.0	 0.0	 0.0	 0.0	 0.0	 0.0	 0.0	 0.0	 0.0	 0.0	 0.0	 0.0	 0.0; % NG
	5031	 478.06	 150.07	 605.0	 -605.0	 1.05	 100.0	 1	 1210.0	 0.0	 0.0	 0.0	 0.0	 0.0	 0.0	 0.0	 0.0	 0.0	 0.0	 0.0	 0.0; % COW
	5031	 7074.88	 1091.2	 4399.0	 -4399.0	 1.05	 100.0	 1	 8798.8	 0.0	 0.0	 0.0	 0.0	 0.0	 0.0	 0.0	 0.0	 0.0	 0.0	 0.0	 0.0; % COW
	5032	 5275.0	 610.58	 2977.0	 -2977.0	 1.055	 100.0	 1	 5954.0	 0.0	 0.0	 0.0	 0.0	 0.0	 0.0	 0.0	 0.0	 0.0	 0.0	 0.0	 0.0; % COW
	5032	 1422.32	 451.22	 2200.0	 -2200.0	 1.055	 100.0	 1	 4400.0	 0.0	 0.0	 0.0	 0.0	 0.0	 0.0	 0.0	 0.0	 0.0	 0.0	 0.0	 0.0; % COW
	5032	 3576.8	 452.24	 2205.0	 -2205.0	 1.055	 100.0	 1	 4410.2	 0.0	 0.0	 0.0	 0.0	 0.0	 0.0	 0.0	 0.0	 0.0	 0.0	 0.0	 0.0; % COW
	5032	 108.0	 11.08	 54.0	 -54.0	 1.055	 100.0	 1	 108.0	 0.0	 0.0	 0.0	 0.0	 0.0	 0.0	 0.0	 0.0	 0.0	 0.0	 0.0	 0.0; % NG
	5032	 108.0	 55.58	 271.0	 -271.0	 1.055	 100.0	 1	 541.0	 0.0	 0.0	 0.0	 0.0	 0.0	 0.0	 0.0	 0.0	 0.0	 0.0	 0.0	 0.0; % COW
	6132	 13.0	 -1.8	 8.0	 -8.0	 1.13	 100.0	 1	 15.0	 0.0	 0.0	 0.0	 0.0	 0.0	 0.0	 0.0	 0.0	 0.0	 0.0	 0.0	 0.0; % PEL
	6132	 203.6	 -33.04	 147.0	 -147.0	 1.13	 100.0	 1	 293.0	 0.0	 0.0	 0.0	 0.0	 0.0	 0.0	 0.0	 0.0	 0.0	 0.0	 0.0	 0.0; % NG
	6132	 1849.0	 -240.98	 1072.0	 -1072.0	 1.13	 100.0	 1	 2144.0	 0.0	 0.0	 0.0	 0.0	 0.0	 0.0	 0.0	 0.0	 0.0	 0.0	 0.0	 0.0; % COW
	6132	 35.0	 -4.05	 18.0	 -18.0	 1.13	 100.0	 1	 35.0	 0.0	 0.0	 0.0	 0.0	 0.0	 0.0	 0.0	 0.0	 0.0	 0.0	 0.0	 0.0; % COW
	6132	 46.0	 -26.53	 118.0	 -118.0	 1.13	 100.0	 1	 236.0	 0.0	 0.0	 0.0	 0.0	 0.0	 0.0	 0.0	 0.0	 0.0	 0.0	 0.0	 0.0; % NG
	6231	 2225.0	 -253.67	 1256.0	 -1256.0	 1.12	 100.0	 1	 2511.0	 0.0	 0.0	 0.0	 0.0	 0.0	 0.0	 0.0	 0.0	 0.0	 0.0	 0.0	 0.0; % NUC
	6231	 43.4	 -14.14	 70.0	 -70.0	 1.12	 100.0	 1	 140.0	 0.0	 0.0	 0.0	 0.0	 0.0	 0.0	 0.0	 0.0	 0.0	 0.0	 0.0	 0.0; % NG
	6235	 82.0	 -25.87	 64.0	 -64.0	 1.144	 100.0	 1	 127.0	 0.0	 0.0	 0.0	 0.0	 0.0	 0.0	 0.0	 0.0	 0.0	 0.0	 0.0	 0.0; % NG
	6235	 580.6	 -140.28	 347.0	 -347.0	 1.144	 100.0	 1	 693.0	 0.0	 0.0	 0.0	 0.0	 0.0	 0.0	 0.0	 0.0	 0.0	 0.0	 0.0	 0.0; % COW
	6235	 38.0	 -38.4	 95.0	 -95.0	 1.144	 100.0	 1	 190.0	 0.0	 0.0	 0.0	 0.0	 0.0	 0.0	 0.0	 0.0	 0.0	 0.0	 0.0	 0.0; % NG
	6333	 2961.0	 859.4	 1671.0	 -1671.0	 1.13	 100.0	 1	 3342.0	 0.0	 0.0	 0.0	 0.0	 0.0	 0.0	 0.0	 0.0	 0.0	 0.0	 0.0	 0.0; % NUC
	6333	 50.0	 63.77	 124.0	 -124.0	 1.13	 100.0	 1	 248.0	 0.0	 0.0	 0.0	 0.0	 0.0	 0.0	 0.0	 0.0	 0.0	 0.0	 0.0	 0.0; % COW
	6335	 1714.0	 209.96	 968.0	 -968.0	 1.06	 100.0	 1	 1935.0	 0.0	 0.0	 0.0	 0.0	 0.0	 0.0	 0.0	 0.0	 0.0	 0.0	 0.0	 0.0; % COW
	6335	 293.32	 71.58	 330.0	 -330.0	 1.06	 100.0	 1	 659.0	 0.0	 0.0	 0.0	 0.0	 0.0	 0.0	 0.0	 0.0	 0.0	 0.0	 0.0	 0.0; % NG
	6335	 417.2	 88.06	 406.0	 -406.0	 1.06	 100.0	 1	 812.0	 0.0	 0.0	 0.0	 0.0	 0.0	 0.0	 0.0	 0.0	 0.0	 0.0	 0.0	 0.0; % COW
	6433	 501.0	 107.69	 283.0	 -283.0	 1.11	 100.0	 1	 565.0	 0.0	 0.0	 0.0	 0.0	 0.0	 0.0	 0.0	 0.0	 0.0	 0.0	 0.0	 0.0; % COW
	6433	 106.0	 22.45	 59.0	 -59.0	 1.11	 100.0	 1	 118.0	 0.0	 0.0	 0.0	 0.0	 0.0	 0.0	 0.0	 0.0	 0.0	 0.0	 0.0	 0.0; % NG
	6433	 713.48	 203.95	 536.0	 -536.0	 1.11	 100.0	 1	 1072.0	 0.0	 0.0	 0.0	 0.0	 0.0	 0.0	 0.0	 0.0	 0.0	 0.0	 0.0	 0.0; % COW
	6433	 23.0	 4.57	 12.0	 -12.0	 1.11	 100.0	 1	 23.0	 0.0	 0.0	 0.0	 0.0	 0.0	 0.0	 0.0	 0.0	 0.0	 0.0	 0.0	 0.0; % PEL
	6433	 10.0	 9.51	 25.0	 -25.0	 1.11	 100.0	 1	 50.0	 0.0	 0.0	 0.0	 0.0	 0.0	 0.0	 0.0	 0.0	 0.0	 0.0	 0.0	 0.0; % NG
	6533	 3408.0	 278.88	 1924.0	 -1924.0	 1.065	 100.0	 1	 3847.0	 0.0	 0.0	 0.0	 0.0	 0.0	 0.0	 0.0	 0.0	 0.0	 0.0	 0.0	 0.0; % COW
	6533	 33.0	 2.75	 19.0	 -19.0	 1.065	 100.0	 1	 37.0	 0.0	 0.0	 0.0	 0.0	 0.0	 0.0	 0.0	 0.0	 0.0	 0.0	 0.0	 0.0; % NG
	6533	 1006.6	 127.55	 880.0	 -880.0	 1.065	 100.0	 1	 1760.0	 0.0	 0.0	 0.0	 0.0	 0.0	 0.0	 0.0	 0.0	 0.0	 0.0	 0.0	 0.0; % COW
	6533	 31.2	 2.9	 20.0	 -20.0	 1.065	 100.0	 1	 39.0	 0.0	 0.0	 0.0	 0.0	 0.0	 0.0	 0.0	 0.0	 0.0	 0.0	 0.0	 0.0; % NG
	6533	 60.4	 4.49	 31.0	 -31.0	 1.065	 100.0	 1	 61.0	 0.0	 0.0	 0.0	 0.0	 0.0	 0.0	 0.0	 0.0	 0.0	 0.0	 0.0	 0.0; % NG
	7031	 2514.0	 379.19	 1419.0	 -1419.0	 1.0	 100.0	 1	 2837.0	 0.0	 0.0	 0.0	 0.0	 0.0	 0.0	 0.0	 0.0	 0.0	 0.0	 0.0	 0.0; % NUC
	7031	 2462.6	 559.03	 2092.0	 -2092.0	 1.0	 100.0	 1	 4184.0	 0.0	 0.0	 0.0	 0.0	 0.0	 0.0	 0.0	 0.0	 0.0	 0.0	 0.0	 0.0; % NUC
	7031	 0.0	 44.63	 167.0	 -167.0	 1.0	 100.0	 1	 333.0	 -333.0	 0.0	 0.0	 0.0	 0.0	 0.0	 0.0	 0.0	 0.0	 0.0	 0.0	 0.0; % COW
	7031	 119.0	 79.9	 299.0	 -299.0	 1.0	 100.0	 1	 597.0	 0.0	 0.0	 0.0	 0.0	 0.0	 0.0	 0.0	 0.0	 0.0	 0.0	 0.0	 0.0; % NG
	7031	 0.0	 267.22	 1000.0	 -1000.0	 1.0	 100.0	 1	 0.1	 0.0	 0.0	 0.0	 0.0	 0.0	 0.0	 0.0	 0.0	 0.0	 0.0	 0.0	 0.0; % NG
	7032	 1464.0	 126.68	 826.0	 -826.0	 1.015	 100.0	 1	 1652.0	 0.0	 0.0	 0.0	 0.0	 0.0	 0.0	 0.0	 0.0	 0.0	 0.0	 0.0	 0.0; % COW
	7032	 885.6	 75.0	 489.0	 -489.0	 1.015	 100.0	 1	 978.0	 0.0	 0.0	 0.0	 0.0	 0.0	 0.0	 0.0	 0.0	 0.0	 0.0	 0.0	 0.0; % COW
	7032	 691.0	 53.07	 346.0	 -346.0	 1.015	 100.0	 1	 691.0	 0.0	 0.0	 0.0	 0.0	 0.0	 0.0	 0.0	 0.0	 0.0	 0.0	 0.0	 0.0; % COW
	7032	 0.0	 3.53	 23.0	 -23.0	 1.015	 100.0	 1	 200.0	 -200.0	 0.0	 0.0	 0.0	 0.0	 0.0	 0.0	 0.0	 0.0	 0.0	 0.0	 0.0; % NG
	8033	 1532.4	 -10.12	 786.0	 -786.0	 1.075	 100.0	 1	 1572.0	 0.0	 0.0	 0.0	 0.0	 0.0	 0.0	 0.0	 0.0	 0.0	 0.0	 0.0	 0.0; % NUC
	8034	 2358.8	 536.88	 1280.0	 -1280.0	 1.0	 100.0	 1	 2560.0	 0.0	 0.0	 0.0	 0.0	 0.0	 0.0	 0.0	 0.0	 0.0	 0.0	 0.0	 0.0; % COW
	8034	 663.8	 144.29	 344.0	 -344.0	 1.0	 100.0	 1	 688.0	 0.0	 0.0	 0.0	 0.0	 0.0	 0.0	 0.0	 0.0	 0.0	 0.0	 0.0	 0.0; % NUC
];

%% generator cost data
%	2	startup	shutdown	n	c(n-1)	...	c0
mpc.gencost = [
	2	 0.0	 0.0	 3	   0.000000	   0.215565	   0.000000; % NUC
	2	 0.0	 0.0	 3	   0.000000	   1.004136	   0.000000; % COW
	2	 0.0	 0.0	 3	   0.000000	   0.854874	   0.000000; % COW
	2	 0.0	 0.0	 3	   0.000000	   0.464390	   0.000000; % COW
	2	 0.0	 0.0	 3	   0.000000	   0.843331	   0.000000; % COW
	2	 0.0	 0.0	 3	   0.000000	   0.573036	   0.000000; % COW
	2	 0.0	 0.0	 3	   0.000000	   0.419719	   0.000000; % COW
	2	 0.0	 0.0	 3	   0.000000	   1.095224	   0.000000; % NG
	2	 0.0	 0.0	 3	   0.000000	   1.071284	   0.000000; % COW
	2	 0.0	 0.0	 3	   0.000000	   0.945374	   0.000000; % COW
	2	 0.0	 0.0	 3	   0.000000	   0.891224	   0.000000; % COW
	2	 0.0	 0.0	 3	   0.000000	   0.456653	   0.000000; % COW
	2	 0.0	 0.0	 3	   0.000000	   0.671429	   0.000000; % COW
	2	 0.0	 0.0	 3	   0.000000	   0.574242	   0.000000; % COW
	2	 0.0	 0.0	 3	   0.000000	   7.211471	   0.000000; % PEL
	2	 0.0	 0.0	 3	   0.000000	   0.177082	   0.000000; % NUC
	2	 0.0	 0.0	 3	   0.000000	   0.769280	   0.000000; % NG
	2	 0.0	 0.0	 3	   0.000000	   1.073971	   0.000000; % NG
	2	 0.0	 0.0	 3	   0.000000	   6.773452	   0.000000; % PEL
	2	 0.0	 0.0	 3	   0.000000	   0.964179	   0.000000; % COW
	2	 0.0	 0.0	 3	   0.000000	   1.152090	   0.000000; % NG
	2	 0.0	 0.0	 3	   0.000000	   1.001462	   0.000000; % COW
	2	 0.0	 0.0	 3	   0.000000	   0.977145	   0.000000; % COW
	2	 0.0	 0.0	 3	   0.000000	   1.014988	   0.000000; % NG
	2	 0.0	 0.0	 3	   0.000000	   0.783368	   0.000000; % COW
	2	 0.0	 0.0	 3	   0.000000	   0.207630	   0.000000; % NUC
	2	 0.0	 0.0	 3	   0.000000	   0.511760	   0.000000; % COW
	2	 0.0	 0.0	 3	   0.000000	   0.745957	   0.000000; % COW
	2	 0.0	 0.0	 3	   0.000000	   0.217191	   0.000000; % NUC
	2	 0.0	 0.0	 3	   0.000000	   0.202258	   0.000000; % NUC
	2	 0.0	 0.0	 3	   0.000000	   0.532657	   0.000000; % COW
	2	 0.0	 0.0	 3	   0.000000	   0.944881	   0.000000; % COW
	2	 0.0	 0.0	 3	   0.000000	   1.400402	   0.000000; % COW
	2	 0.0	 0.0	 3	   0.000000	   0.809001	   0.000000; % COW
	2	 0.0	 0.0	 3	   0.000000	   0.600734	   0.000000; % COW
	2	 0.0	 0.0	 3	   0.000000	   0.000000	   0.000000; % SYNC
	2	 0.0	 0.0	 3	   0.000000	   0.239086	   0.000000; % NUC
	2	 0.0	 0.0	 3	   0.000000	   0.917261	   0.000000; % COW
	2	 0.0	 0.0	 3	   0.000000	   0.958911	   0.000000; % NG
	2	 0.0	 0.0	 3	   0.000000	   0.947873	   0.000000; % COW
	2	 0.0	 0.0	 3	   0.000000	   1.438791	   0.000000; % NG
	2	 0.0	 0.0	 3	   0.000000	   0.436616	   0.000000; % COW
	2	 0.0	 0.0	 3	   0.000000	   1.168151	   0.000000; % NG
	2	 0.0	 0.0	 3	   0.000000	   6.075713	   0.000000; % PEL
	2	 0.0	 0.0	 3	   0.000000	   1.545275	   0.000000; % NG
	2	 0.0	 0.0	 3	   0.000000	   1.232610	   0.000000; % NG
	2	 0.0	 0.0	 3	   0.000000	   0.960602	   0.000000; % COW
	2	 0.0	 0.0	 3	   0.000000	   0.173623	   0.000000; % NUC
	2	 0.0	 0.0	 3	   0.000000	   0.823364	   0.000000; % COW
	2	 0.0	 0.0	 3	   0.000000	   0.668391	   0.000000; % COW
	2	 0.0	 0.0	 3	   0.000000	   0.254947	   0.000000; % NUC
	2	 0.0	 0.0	 3	   0.000000	   0.988213	   0.000000; % NG
	2	 0.0	 0.0	 3	   0.000000	   0.223010	   0.000000; % NUC
	2	 0.0	 0.0	 3	   0.000000	   0.676982	   0.000000; % COW
	2	 0.0	 0.0	 3	   0.000000	   7.149605	   0.000000; % PEL
	2	 0.0	 0.0	 3	   0.000000	   1.013357	   0.000000; % NG
	2	 0.0	 0.0	 3	   0.000000	   0.817342	   0.000000; % COW
	2	 0.0	 0.0	 3	   0.000000	   6.176606	   0.000000; % PEL
	2	 0.0	 0.0	 3	   0.000000	   0.480418	   0.000000; % NG
	2	 0.0	 0.0	 3	   0.000000	   1.114415	   0.000000; % COW
	2	 0.0	 0.0	 3	   0.000000	   1.344762	   0.000000; % NG
	2	 0.0	 0.0	 3	   0.000000	   0.610439	   0.000000; % COW
	2	 0.0	 0.0	 3	   0.000000	   0.467568	   0.000000; % COW
	2	 0.0	 0.0	 3	   0.000000	   0.000000	   0.000000; % SYNC
	2	 0.0	 0.0	 3	   0.000000	   1.203282	   0.000000; % COW
	2	 0.0	 0.0	 3	   0.000000	   0.586372	   0.000000; % COW
	2	 0.0	 0.0	 3	   0.000000	   0.219075	   0.000000; % NUC
	2	 0.0	 0.0	 3	   0.000000	   0.197290	   0.000000; % NUC
	2	 0.0	 0.0	 3	   0.000000	   0.375078	   0.000000; % COW
	2	 0.0	 0.0	 3	   0.000000	   1.466314	   0.000000; % NG
	2	 0.0	 0.0	 3	   0.000000	   0.219206	   0.000000; % NUC
	2	 0.0	 0.0	 3	   0.000000	   0.990835	   0.000000; % COW
	2	 0.0	 0.0	 3	   0.000000	   1.100758	   0.000000; % NG
	2	 0.0	 0.0	 3	   0.000000	   0.179105	   0.000000; % NUC
	2	 0.0	 0.0	 3	   0.000000	   1.176060	   0.000000; % NG
	2	 0.0	 0.0	 3	   0.000000	   0.602866	   0.000000; % COW
	2	 0.0	 0.0	 3	   0.000000	   0.605959	   0.000000; % COW
	2	 0.0	 0.0	 3	   0.000000	   0.944406	   0.000000; % COW
	2	 0.0	 0.0	 3	   0.000000	   0.526305	   0.000000; % COW
	2	 0.0	 0.0	 3	   0.000000	   7.490125	   0.000000; % PEL
	2	 0.0	 0.0	 3	   0.000000	   1.153742	   0.000000; % NG
	2	 0.0	 0.0	 3	   0.000000	   0.886987	   0.000000; % COW
	2	 0.0	 0.0	 3	   0.000000	   0.662698	   0.000000; % COW
	2	 0.0	 0.0	 3	   0.000000	   0.159490	   0.000000; % NUC
	2	 0.0	 0.0	 3	   0.000000	   0.991840	   0.000000; % COW
	2	 0.0	 0.0	 3	   0.000000	   0.291567	   0.000000; % COW
	2	 0.0	 0.0	 3	   0.000000	   1.013702	   0.000000; % NG
	2	 0.0	 0.0	 3	   0.000000	   7.428322	   0.000000; % PEL
	2	 0.0	 0.0	 3	   0.000000	   1.019387	   0.000000; % COW
	2	 0.0	 0.0	 3	   0.000000	   0.578308	   0.000000; % COW
	2	 0.0	 0.0	 3	   0.000000	   1.116999	   0.000000; % COW
	2	 0.0	 0.0	 3	   0.000000	   1.041122	   0.000000; % NG
	2	 0.0	 0.0	 3	   0.000000	   6.091154	   0.000000; % PEL
	2	 0.0	 0.0	 3	   0.000000	   0.275146	   0.000000; % COW
	2	 0.0	 0.0	 3	   0.000000	   0.794365	   0.000000; % COW
	2	 0.0	 0.0	 3	   0.000000	   1.297626	   0.000000; % NG
	2	 0.0	 0.0	 3	   0.000000	   0.966807	   0.000000; % COW
	2	 0.0	 0.0	 3	   0.000000	   0.792638	   0.000000; % COW
	2	 0.0	 0.0	 3	   0.000000	   1.309708	   0.000000; % NG
	2	 0.0	 0.0	 3	   0.000000	   0.951507	   0.000000; % COW
	2	 0.0	 0.0	 3	   0.000000	   0.871351	   0.000000; % COW
	2	 0.0	 0.0	 3	   0.000000	   0.858239	   0.000000; % COW
	2	 0.0	 0.0	 3	   0.000000	   0.366363	   0.000000; % COW
	2	 0.0	 0.0	 3	   0.000000	   0.710440	   0.000000; % COW
	2	 0.0	 0.0	 3	   0.000000	   1.500598	   0.000000; % NG
	2	 0.0	 0.0	 3	   0.000000	   1.379778	   0.000000; % COW
	2	 0.0	 0.0	 3	   0.000000	   6.727713	   0.000000; % PEL
	2	 0.0	 0.0	 3	   0.000000	   1.171278	   0.000000; % NG
	2	 0.0	 0.0	 3	   0.000000	   0.673024	   0.000000; % COW
	2	 0.0	 0.0	 3	   0.000000	   0.560297	   0.000000; % COW
	2	 0.0	 0.0	 3	   0.000000	   1.413033	   0.000000; % NG
	2	 0.0	 0.0	 3	   0.000000	   0.236510	   0.000000; % NUC
	2	 0.0	 0.0	 3	   0.000000	   0.922875	   0.000000; % NG
	2	 0.0	 0.0	 3	   0.000000	   1.173497	   0.000000; % NG
	2	 0.0	 0.0	 3	   0.000000	   0.625981	   0.000000; % COW
	2	 0.0	 0.0	 3	   0.000000	   1.033496	   0.000000; % NG
	2	 0.0	 0.0	 3	   0.000000	   0.222865	   0.000000; % NUC
	2	 0.0	 0.0	 3	   0.000000	   0.568712	   0.000000; % COW
	2	 0.0	 0.0	 3	   0.000000	   1.124657	   0.000000; % COW
	2	 0.0	 0.0	 3	   0.000000	   0.965161	   0.000000; % NG
	2	 0.0	 0.0	 3	   0.000000	   1.040285	   0.000000; % COW
	2	 0.0	 0.0	 3	   0.000000	   0.988961	   0.000000; % COW
	2	 0.0	 0.0	 3	   0.000000	   1.116123	   0.000000; % NG
	2	 0.0	 0.0	 3	   0.000000	   0.609806	   0.000000; % COW
	2	 0.0	 0.0	 3	   0.000000	   6.804142	   0.000000; % PEL
	2	 0.0	 0.0	 3	   0.000000	   0.692870	   0.000000; % NG
	2	 0.0	 0.0	 3	   0.000000	   0.787080	   0.000000; % COW
	2	 0.0	 0.0	 3	   0.000000	   1.163108	   0.000000; % NG
	2	 0.0	 0.0	 3	   0.000000	   0.841585	   0.000000; % COW
	2	 0.0	 0.0	 3	   0.000000	   1.488151	   0.000000; % NG
	2	 0.0	 0.0	 3	   0.000000	   0.761941	   0.000000; % NG
	2	 0.0	 0.0	 3	   0.000000	   0.191008	   0.000000; % NUC
	2	 0.0	 0.0	 3	   0.000000	   0.203066	   0.000000; % NUC
	2	 0.0	 0.0	 3	   0.000000	   1.128503	   0.000000; % COW
	2	 0.0	 0.0	 3	   0.000000	   0.848719	   0.000000; % NG
	2	 0.0	 0.0	 3	   0.000000	   0.782609	   0.000000; % NG
	2	 0.0	 0.0	 3	   0.000000	   0.627364	   0.000000; % COW
	2	 0.0	 0.0	 3	   0.000000	   0.742344	   0.000000; % COW
	2	 0.0	 0.0	 3	   0.000000	   0.864591	   0.000000; % COW
	2	 0.0	 0.0	 3	   0.000000	   1.321864	   0.000000; % NG
	2	 0.0	 0.0	 3	   0.000000	   0.174718	   0.000000; % NUC
	2	 0.0	 0.0	 3	   0.000000	   0.723301	   0.000000; % COW
	2	 0.0	 0.0	 3	   0.000000	   0.166506	   0.000000; % NUC
];

%% branch data
%	fbus	tbus	r	x	b	rateA	rateB	rateC	ratio	angle	status	angmin	angmax
mpc.branch = [
	1001	 1201	 0.00177	 0.03169	 3.3446	 996	 996	 996	 0.0	 0.0	 1	 -30.0	 30.0;
	1001	 1202	 0.0108	 0.0965	 0.3296	 326	 326	 326	 0.0	 0.0	 1	 -30.0	 30.0;
	1002	 1004	 0.0005	 0.0053	 0.0882	 5934	 5934	 5934	 0.0	 0.0	 1	 -30.0	 30.0;
	1002	 1102	 0.00179	 0.01988	 2.576	 1583	 1583	 1583	 0.0	 0.0	 1	 -30.0	 30.0;
	1002	 1102	 0.00179	 0.01988	 2.576	 1583	 1583	 1583	 0.0	 0.0	 1	 -30.0	 30.0;
	1002	 6506	 0.0048	 0.0436	 0.7078	 721	 721	 721	 0.0	 0.0	 1	 -30.0	 30.0;
	1004	 7001	 0.03903	 0.27403	 2.0	 115	 115	 115	 0.0	 0.0	 1	 -30.0	 30.0;
	1004	 7002	 0.00977	 0.11	 2.0	 287	 287	 287	 0.0	 0.0	 1	 -30.0	 30.0;
	1101	 1401	 0.0028	 0.0211	 1.0194	 1485	 1485	 1485	 0.0	 0.0	 1	 -30.0	 30.0;
	1101	 1401	 0.0028	 0.0211	 1.0194	 1485	 1485	 1485	 0.0	 0.0	 1	 -30.0	 30.0;
	1201	 1202	 0.00077	 0.00536	 1.39842	 5834	 5834	 5834	 0.0	 0.0	 1	 -30.0	 30.0;
	1201	 1402	 0.00179	 0.02592	 3.3922	 1216	 1216	 1216	 0.0	 0.0	 1	 -30.0	 30.0;
	1201	 2901	 0.00207	 0.01369	 3.9516	 2282	 2282	 2282	 0.0	 0.0	 1	 -30.0	 30.0;
	1202	 1302	 0.0028	 0.0211	 1.0194	 1485	 1485	 1485	 0.0	 0.0	 1	 -30.0	 30.0;
	1202	 1402	 0.00241	 0.03489	 4.8656	 904	 904	 904	 0.0	 0.0	 1	 -30.0	 30.0;
	1301	 1302	 0.0028	 0.0211	 1.0194	 1485	 1485	 1485	 0.0	 0.0	 1	 -30.0	 30.0;
	1301	 1402	 0.0028	 0.0211	 1.0194	 1485	 1485	 1485	 0.0	 0.0	 1	 -30.0	 30.0;
	1301	 1402	 0.0062	 0.0673	 1.1156	 468	 468	 468	 0.0	 0.0	 1	 -30.0	 30.0;
	1301	 2603	 0.00179	 0.02524	 0.53546	 1249	 1249	 1249	 0.0	 0.0	 1	 -30.0	 30.0;
	1301	 2901	 0.0108	 0.0965	 0.3296	 326	 326	 326	 0.0	 0.0	 1	 -30.0	 30.0;
	1303	 6507	 0.00811	 0.1369	 1.1156	 231	 231	 231	 0.0	 0.0	 1	 -30.0	 30.0;
	1401	 1402	 0.0004	 0.0096	 0.9038	 3288	 3288	 3288	 0.0	 0.0	 1	 -30.0	 30.0;
	1401	 1402	 0.0004	 0.0096	 0.9038	 3288	 3288	 3288	 0.0	 0.0	 1	 -30.0	 30.0;
	1401	 2301	 0.00259	 0.02967	 2.153	 1061	 1061	 1061	 0.0	 0.0	 1	 -30.0	 30.0;
	1401	 2400	 0.00259	 0.02967	 2.153	 1061	 1061	 1061	 0.0	 0.0	 1	 -30.0	 30.0;
	1403	 2100	 0.00845	 0.07034	 0.15954	 446	 446	 446	 0.0	 0.0	 1	 -30.0	 30.0;
	2000	 2202	 0.00138	 0.05399	 0.15252	 585	 585	 585	 0.0	 0.0	 1	 -30.0	 30.0;
	2000	 2302	 0.00138	 0.05399	 0.15252	 585	 585	 585	 0.0	 0.0	 1	 -30.0	 30.0;
	2100	 2302	 0.00845	 0.07034	 0.15954	 446	 446	 446	 0.0	 0.0	 1	 -30.0	 30.0;
	2201	 2301	 0.00179	 0.02524	 2.153	 1249	 1249	 1249	 0.0	 0.0	 1	 -30.0	 30.0;
	2202	 2203	 0.00312	 0.02886	 0.15252	 1089	 986.0	 986.0	 0.0	 0.0	 1	 -30.0	 30.0;
	2202	 2203	 0.00312	 0.02886	 0.15252	 1089	 986.0	 986.0	 0.0	 0.0	 1	 -30.0	 30.0;
	2202	 2503	 0.00312	 0.02886	 0.15252	 1089	 986.0	 986.0	 0.0	 0.0	 1	 -30.0	 30.0;
	2203	 2503	 0.00312	 0.02886	 0.15252	 1089	 986.0	 986.0	 0.0	 0.0	 1	 -30.0	 30.0;
	2203	 2503	 0.00312	 0.02886	 0.15252	 1089	 986.0	 986.0	 0.0	 0.0	 1	 -30.0	 30.0;
	2400	 2403	 0.00042	 0.00905	 0.66794	 3487	 3487	 3487	 0.0	 0.0	 1	 -30.0	 30.0;
	2401	 2402	 0.00028	 0.00753	 0.51736	 4192	 4192	 3600.0	 0.0	 0.0	 1	 -30.0	 30.0;
	2401	 2402	 0.00035	 0.0075	 0.5536	 4208	 4208	 3600.0	 0.0	 0.0	 1	 -30.0	 30.0;
	2401	 2404	 0.00044	 0.01125	 0.8292	 2806	 2806	 2806	 0.0	 0.0	 1	 -30.0	 30.0;
	2401	 2404	 0.00044	 0.01125	 0.8292	 2806	 2806	 2806	 0.0	 0.0	 1	 -30.0	 30.0;
	2401	 2501	 0.0006	 0.0128	 0.9462	 2466	 2466	 2466	 0.0	 0.0	 1	 -30.0	 30.0;
	2401	 2603	 0.0002	 0.0041	 0.2962	 7696	 7696	 7696	 0.0	 0.0	 1	 -30.0	 30.0;
	2401	 2901	 0.00193	 0.02779	 4.6712	 1134	 1134	 1134	 0.0	 0.0	 1	 -30.0	 30.0;
	2401	 2902	 0.0019	 0.031	 4.1402	 1018	 1018	 1018	 0.0	 0.0	 1	 -30.0	 30.0;
	2402	 2501	 0.00021	 0.00457	 0.32336	 6905	 6905	 3600.0	 0.0	 0.0	 1	 -30.0	 30.0;
	2403	 2501	 0.0004	 0.0093	 0.6856	 3394	 3394	 3394	 0.0	 0.0	 1	 -30.0	 30.0;
	2404	 3893	 0.0	 -0.00935	 0.0	 3379	 3379	 2134.0	 0.0	 0.0	 1	 -30.0	 30.0;
	2404	 3895	 0.0	 -0.00935	 0.0	 3379	 3379	 2134.0	 0.0	 0.0	 1	 -30.0	 30.0;
	2404	 3897	 0.0	 -0.0084	 0.0	 3761	 3761	 2100.0	 0.0	 0.0	 1	 -30.0	 30.0;
	2405	 2406	 0.0014	 0.0264	 0.102	 1195	 1195	 1195	 0.0	 0.0	 1	 -30.0	 30.0;
	2405	 2410	 0.00065	 0.01187	 0.04672	 2658	 2658	 2658	 0.0	 0.0	 1	 -30.0	 30.0;
	2405	 2410	 0.00065	 0.01187	 0.04672	 2658	 2658	 2658	 0.0	 0.0	 1	 -30.0	 30.0;
	2406	 2408	 0.0019	 0.0258	 0.0984	 1222	 1222	 1222	 0.0	 0.0	 1	 -30.0	 30.0;
	2406	 2410	 0.00845	 0.07034	 0.15954	 446	 446	 446	 0.0	 0.0	 1	 -30.0	 30.0;
	2407	 2408	 0.0011	 0.0127	 0.048	 2478	 2478	 2320.0	 0.0	 0.0	 1	 -30.0	 30.0;
	2408	 2409	 0.00138	 0.05399	 0.15252	 585	 585	 585	 0.0	 0.0	 1	 -30.0	 30.0;
	2408	 2409	 0.00138	 0.05399	 0.15252	 585	 585	 585	 0.0	 0.0	 1	 -30.0	 30.0;
	2408	 2411	 0.0032	 0.0395	 0.144	 798	 798	 798	 0.0	 0.0	 1	 -30.0	 30.0;
	2408	 2502	 0.00312	 0.02886	 0.15252	 1089	 986.0	 986.0	 0.0	 0.0	 1	 -30.0	 30.0;
	2409	 2502	 0.00312	 0.02886	 0.15252	 1089	 986.0	 986.0	 0.0	 0.0	 1	 -30.0	 30.0;
	2409	 2503	 0.00312	 0.02886	 0.15252	 1089	 986.0	 986.0	 0.0	 0.0	 1	 -30.0	 30.0;
	2410	 2411	 0.00285	 0.03649	 0.12656	 864	 864	 864	 0.0	 0.0	 1	 -30.0	 30.0;
	2410	 2411	 0.00138	 0.03399	 0.11252	 929	 929	 929	 0.0	 0.0	 1	 -30.0	 30.0;
	2502	 2503	 0.00312	 0.02886	 0.15252	 1089	 986.0	 986.0	 0.0	 0.0	 1	 -30.0	 30.0;
	2502	 2503	 0.00312	 0.02886	 0.15252	 1089	 986.0	 986.0	 0.0	 0.0	 1	 -30.0	 30.0;
	2901	 2902	 0.00056	 0.01415	 1.0429	 2231	 2231	 2231	 0.0	 0.0	 1	 -30.0	 30.0;
	2600	 2602	 0.00082	 0.01668	 1.18802	 1892	 1892	 1892	 0.0	 0.0	 1	 -30.0	 30.0;
	2600	 2603	 0.0	 0.00159	 0.12002	 19867	 19867	 19867	 0.0	 0.0	 1	 -30.0	 30.0;
	2600	 2603	 0.0	 0.00159	 0.12002	 19867	 19867	 19867	 0.0	 0.0	 1	 -30.0	 30.0;
	2600	 2601	 0.00074	 0.01861	 1.40264	 1696	 1696	 1696	 0.0	 0.0	 1	 -30.0	 30.0;
	2601	 2603	 0.00083	 0.01884	 1.66668	 1675	 1675	 1675	 0.0	 0.0	 1	 -30.0	 30.0;
	2603	 2901	 0.00179	 0.02524	 0.53546	 1249	 1249	 1249	 0.0	 0.0	 1	 -30.0	 30.0;
	2604	 6404	 0.0108	 0.0965	 0.3296	 326	 326	 326	 0.0	 0.0	 1	 -30.0	 30.0;
	2604	 6504	 0.0018	 0.0245	 0.4392	 1286	 1286	 1286	 0.0	 0.0	 1	 -30.0	 30.0;
	2604	 6504	 0.0018	 0.0245	 0.4392	 1286	 1286	 1286	 0.0	 0.0	 1	 -30.0	 30.0;
	2605	 2607	 0.0107	 0.07905	 0.3667	 396	 396	 396	 0.0	 0.0	 1	 -30.0	 30.0;
	2606	 2607	 0.0107	 0.07905	 0.3667	 396	 396	 396	 0.0	 0.0	 1	 -30.0	 30.0;
	2608	 2611	 0.00221	 0.03346	 0.07338	 942	 942	 942	 0.0	 0.0	 1	 -30.0	 30.0;
	2608	 2612	 0.0029	 0.038	 0.0824	 829	 829	 829	 0.0	 0.0	 1	 -30.0	 30.0;
	2608	 2618	 0.00309	 0.04677	 0.1008	 674	 674	 674	 0.0	 0.0	 1	 -30.0	 30.0;
	2608	 2619	 0.00226	 0.03422	 0.07506	 922	 922	 922	 0.0	 0.0	 1	 -30.0	 30.0;
	2609	 2615	 0.00047	 0.00723	 0.01624	 4360	 4360	 4360	 0.0	 0.0	 1	 -30.0	 30.0;
	2609	 2617	 0.00035	 0.00536	 0.01204	 5881	 5881	 5881	 0.0	 0.0	 1	 -30.0	 30.0;
	2610	 2613	 0.0022	 0.03422	 0.07716	 922	 922	 922	 0.0	 0.0	 1	 -30.0	 30.0;
	2610	 2613	 0.00238	 0.03669	 0.08284	 860	 860	 860	 0.0	 0.0	 1	 -30.0	 30.0;
	2610	 2616	 0.00201	 0.03074	 0.06886	 1026	 1026	 1026	 0.0	 0.0	 1	 -30.0	 30.0;
	2610	 2617	 0.00281	 0.04296	 0.09648	 734	 734	 734	 0.0	 0.0	 1	 -30.0	 30.0;
	2611	 2612	 0.00029	 0.00434	 0.0095	 7262	 7262	 7262	 0.0	 0.0	 1	 -30.0	 30.0;
	2612	 2615	 0.00229	 0.01583	 0.0306	 1975	 1975	 1975	 0.0	 0.0	 1	 -30.0	 30.0;
	2612	 2615	 0.00229	 0.01583	 0.0306	 1975	 1975	 1975	 0.0	 0.0	 1	 -30.0	 30.0;
	2612	 2618	 0.00141	 0.00967	 0.0194	 3233	 3233	 3233	 0.0	 0.0	 1	 -30.0	 30.0;
	2612	 2618	 0.00141	 0.00967	 0.0194	 3233	 3233	 3233	 0.0	 0.0	 1	 -30.0	 30.0;
	2612	 2618	 0.00161	 0.00971	 0.01928	 3210	 3210	 3210	 0.0	 0.0	 1	 -30.0	 30.0;
	2612	 2618	 0.00161	 0.00971	 0.01928	 3210	 3210	 3210	 0.0	 0.0	 1	 -30.0	 30.0;
	2612	 2619	 0.00027	 0.00393	 0.00918	 8019	 8019	 8019	 0.0	 0.0	 1	 -30.0	 30.0;
	2612	 2619	 0.00027	 0.00393	 0.00918	 8019	 8019	 8019	 0.0	 0.0	 1	 -30.0	 30.0;
	2612	 2619	 0.00027	 0.00393	 0.00918	 8019	 8019	 8019	 0.0	 0.0	 1	 -30.0	 30.0;
	2612	 2620	 0.00138	 0.01116	 0.0247	 2810	 2810	 2810	 0.0	 0.0	 1	 -30.0	 30.0;
	2612	 2620	 0.00138	 0.01116	 0.0247	 2810	 2810	 2810	 0.0	 0.0	 1	 -30.0	 30.0;
	2613	 2616	 0.00037	 0.00366	 0.0083	 8587	 8587	 8587	 0.0	 0.0	 1	 -30.0	 30.0;
	2613	 2617	 0.00055	 0.00586	 0.01246	 5367	 5367	 5367	 0.0	 0.0	 1	 -30.0	 30.0;
	2614	 2616	 0.00073	 0.01025	 0.02558	 3074	 3074	 3074	 0.0	 0.0	 1	 -30.0	 30.0;
	2614	 2616	 0.00073	 0.01025	 0.02558	 3074	 3074	 3074	 0.0	 0.0	 1	 -30.0	 30.0;
	2615	 2617	 0.00119	 0.01244	 0.02798	 2528	 2528	 2528	 0.0	 0.0	 1	 -30.0	 30.0;
	2615	 2617	 0.00119	 0.01244	 0.02798	 2528	 2528	 2528	 0.0	 0.0	 1	 -30.0	 30.0;
	2615	 2620	 0.00128	 0.00979	 0.0212	 3200	 3200	 3200	 0.0	 0.0	 1	 -30.0	 30.0;
	2616	 2617	 0.0011	 0.01189	 0.02514	 2646	 2646	 2646	 0.0	 0.0	 1	 -30.0	 30.0;
	3101	 3102	 0.0011	 0.0127	 0.048	 2478	 1120.0	 1120.0	 0.0	 0.0	 1	 -30.0	 30.0;
	3101	 3102	 0.0011	 0.0127	 0.048	 2478	 1120.0	 1120.0	 0.0	 0.0	 1	 -30.0	 30.0;
	3102	 3103	 0.0011	 0.0127	 0.048	 2478	 1120.0	 1120.0	 0.0	 0.0	 1	 -30.0	 30.0;
	3102	 3103	 0.0011	 0.0127	 0.048	 2478	 1120.0	 1120.0	 0.0	 0.0	 1	 -30.0	 30.0;
	3102	 3103	 0.0011	 0.0127	 0.048	 2478	 1120.0	 1120.0	 0.0	 0.0	 1	 -30.0	 30.0;
	3102	 3302	 0.0011	 0.0127	 0.048	 2478	 1120.0	 1120.0	 0.0	 0.0	 1	 -30.0	 30.0;
	3103	 3204	 0.0011	 0.0127	 0.048	 2478	 1120.0	 1120.0	 0.0	 0.0	 1	 -30.0	 30.0;
	3103	 3204	 0.0011	 0.0127	 0.048	 2478	 1120.0	 1120.0	 0.0	 0.0	 1	 -30.0	 30.0;
	3103	 3305	 0.0011	 0.0127	 0.048	 2478	 1120.0	 1120.0	 0.0	 0.0	 1	 -30.0	 30.0;
	3103	 3305	 0.0011	 0.0127	 0.048	 2478	 1120.0	 1120.0	 0.0	 0.0	 1	 -30.0	 30.0;
	3104	 3105	 0.00312	 0.02886	 0.15252	 1089	 986.0	 986.0	 0.0	 0.0	 1	 -30.0	 30.0;
	3201	 3202	 0.0011	 0.0127	 0.048	 2478	 1120.0	 1120.0	 0.0	 0.0	 1	 -30.0	 30.0;
	3201	 3202	 0.0011	 0.0127	 0.048	 2478	 1120.0	 1120.0	 0.0	 0.0	 1	 -30.0	 30.0;
	3201	 3203	 0.0011	 0.0127	 0.048	 2478	 1120.0	 1120.0	 0.0	 0.0	 1	 -30.0	 30.0;
	3201	 3203	 0.0011	 0.0127	 0.048	 2478	 1120.0	 1120.0	 0.0	 0.0	 1	 -30.0	 30.0;
	3201	 3923	 0.00312	 0.02886	 0.15252	 1089	 986.0	 986.0	 0.0	 0.0	 1	 -30.0	 30.0;
	3201	 3923	 0.00312	 0.02886	 0.15252	 1089	 986.0	 986.0	 0.0	 0.0	 1	 -30.0	 30.0;
	3201	 3924	 0.0011	 0.0127	 0.048	 2478	 1120.0	 1120.0	 0.0	 0.0	 1	 -30.0	 30.0;
	3201	 3924	 0.0011	 0.0127	 0.048	 2478	 1120.0	 1120.0	 0.0	 0.0	 1	 -30.0	 30.0;
	3202	 3203	 0.0011	 0.0127	 0.048	 2478	 1120.0	 1120.0	 0.0	 0.0	 1	 -30.0	 30.0;
	3202	 3203	 0.00312	 0.02886	 0.15252	 1089	 986.0	 986.0	 0.0	 0.0	 1	 -30.0	 30.0;
	3202	 3204	 0.0011	 0.0127	 0.048	 2478	 1120.0	 1120.0	 0.0	 0.0	 1	 -30.0	 30.0;
	3202	 3205	 0.0011	 0.0127	 0.048	 2478	 1120.0	 1120.0	 0.0	 0.0	 1	 -30.0	 30.0;
	3202	 3924	 0.00312	 0.02886	 0.15252	 1089	 986.0	 986.0	 0.0	 0.0	 1	 -30.0	 30.0;
	3202	 3924	 0.00312	 0.02886	 0.15252	 1089	 986.0	 986.0	 0.0	 0.0	 1	 -30.0	 30.0;
	3203	 3204	 0.0011	 0.0127	 0.048	 2478	 1120.0	 1120.0	 0.0	 0.0	 1	 -30.0	 30.0;
	3203	 3303	 0.0011	 0.0127	 0.048	 2478	 1120.0	 1120.0	 0.0	 0.0	 1	 -30.0	 30.0;
	3203	 3303	 0.00312	 0.02886	 0.15252	 1089	 986.0	 986.0	 0.0	 0.0	 1	 -30.0	 30.0;
	3203	 3305	 0.0011	 0.0127	 0.048	 2478	 1120.0	 1120.0	 0.0	 0.0	 1	 -30.0	 30.0;
	3203	 3923	 0.00312	 0.02886	 0.15252	 1089	 986.0	 986.0	 0.0	 0.0	 1	 -30.0	 30.0;
	3203	 3923	 0.00312	 0.02886	 0.15252	 1089	 986.0	 986.0	 0.0	 0.0	 1	 -30.0	 30.0;
	3204	 3205	 0.0011	 0.0127	 0.048	 2478	 1120.0	 1120.0	 0.0	 0.0	 1	 -30.0	 30.0;
	3204	 3205	 0.0011	 0.0127	 0.048	 2478	 1120.0	 1120.0	 0.0	 0.0	 1	 -30.0	 30.0;
	3204	 3923	 0.00312	 0.02886	 0.15252	 1089	 986.0	 986.0	 0.0	 0.0	 1	 -30.0	 30.0;
	3204	 3923	 0.00312	 0.02886	 0.15252	 1089	 986.0	 986.0	 0.0	 0.0	 1	 -30.0	 30.0;
	3205	 3914	 0.00312	 0.02886	 0.15252	 1089	 986.0	 986.0	 0.0	 0.0	 1	 -30.0	 30.0;
	3205	 3915	 0.00312	 0.02886	 0.15252	 1089	 986.0	 986.0	 0.0	 0.0	 1	 -30.0	 30.0;
	3301	 3902	 0.00053	 0.01297	 0.0	 2434	 2434	 2434	 0.0	 0.0	 1	 -30.0	 30.0;
	3301	 3903	 1e-05	 -0.00755	 0.0	 4184	 4184	 4184	 0.0	 0.0	 1	 -30.0	 30.0;
	3302	 3304	 0.0011	 0.0127	 0.048	 2478	 1120.0	 1120.0	 0.0	 0.0	 1	 -30.0	 30.0;
	3302	 3304	 0.0011	 0.0127	 0.048	 2478	 1120.0	 1120.0	 0.0	 0.0	 1	 -30.0	 30.0;
	3303	 3304	 0.0011	 0.0127	 0.048	 2478	 1120.0	 1120.0	 0.0	 0.0	 1	 -30.0	 30.0;
	3303	 3304	 0.0011	 0.0127	 0.048	 2478	 1120.0	 1120.0	 0.0	 0.0	 1	 -30.0	 30.0;
	3303	 3304	 0.0011	 0.0127	 0.048	 2478	 1120.0	 1120.0	 0.0	 0.0	 1	 -30.0	 30.0;
	3303	 3918	 0.00312	 0.02886	 0.15252	 1089	 986.0	 986.0	 0.0	 0.0	 1	 -30.0	 30.0;
	3303	 3918	 0.00312	 0.02886	 0.15252	 1089	 986.0	 986.0	 0.0	 0.0	 1	 -30.0	 30.0;
	3305	 3923	 0.00312	 0.02886	 0.15252	 1089	 986.0	 986.0	 0.0	 0.0	 1	 -30.0	 30.0;
	3401	 3402	 0.00312	 0.02886	 0.15252	 1089	 986.0	 986.0	 0.0	 0.0	 1	 -30.0	 30.0;
	3401	 3402	 0.00312	 0.02886	 0.15252	 1089	 986.0	 986.0	 0.0	 0.0	 1	 -30.0	 30.0;
	3401	 3404	 0.00312	 0.02886	 0.15252	 1089	 986.0	 986.0	 0.0	 0.0	 1	 -30.0	 30.0;
	3401	 3405	 0.00312	 0.02886	 0.15252	 1089	 986.0	 986.0	 0.0	 0.0	 1	 -30.0	 30.0;
	3401	 3405	 0.00312	 0.02886	 0.15252	 1089	 986.0	 986.0	 0.0	 0.0	 1	 -30.0	 30.0;
...